*SPEF "ieee 1481-1999"
*DESIGN "tt_ctrl"
*DATE "11:11:11 Fri 11 11, 1111"
*VENDOR "OpenRCX"
*PROGRAM "Parallel Extraction"
*VERSION "1.0"
*DESIGN_FLOW "NAME_SCOPE LOCAL" "PIN_CAP NONE"
*DIVIDER /
*DELIMITER :
*BUS_DELIMITER []
*T_UNIT 1 NS
*C_UNIT 1 PF
*R_UNIT 1 OHM
*L_UNIT 1 HENRY

*NAME_MAP
*3 ctrl_ena
*4 ctrl_sel_inc
*5 ctrl_sel_rst_n
*6 k_one
*7 k_zero
*8 pad_ui_in[0]
*9 pad_ui_in[1]
*10 pad_ui_in[2]
*11 pad_ui_in[3]
*12 pad_ui_in[4]
*13 pad_ui_in[5]
*14 pad_ui_in[6]
*15 pad_ui_in[7]
*16 pad_ui_in[8]
*17 pad_ui_in[9]
*18 pad_uio_in[0]
*19 pad_uio_in[1]
*20 pad_uio_in[2]
*21 pad_uio_in[3]
*22 pad_uio_in[4]
*23 pad_uio_in[5]
*24 pad_uio_in[6]
*25 pad_uio_in[7]
*26 pad_uio_oe_n_buf_I\[0\]\.z
*27 pad_uio_oe_n_buf_I\[1\]\.z
*28 pad_uio_oe_n_buf_I\[2\]\.z
*29 pad_uio_oe_n_buf_I\[3\]\.z
*30 pad_uio_oe_n_buf_I\[4\]\.z
*31 pad_uio_oe_n_buf_I\[5\]\.z
*32 pad_uio_oe_n_buf_I\[6\]\.z
*33 pad_uio_oe_n_buf_I\[7\]\.z
*34 pad_uio_out_buf_I\[0\]\.z
*35 pad_uio_out_buf_I\[1\]\.z
*36 pad_uio_out_buf_I\[2\]\.z
*37 pad_uio_out_buf_I\[3\]\.z
*38 pad_uio_out_buf_I\[4\]\.z
*39 pad_uio_out_buf_I\[5\]\.z
*40 pad_uio_out_buf_I\[6\]\.z
*41 pad_uio_out_buf_I\[7\]\.z
*42 pad_uo_out_buf_I\[0\]\.z
*43 pad_uo_out_buf_I\[1\]\.z
*44 pad_uo_out_buf_I\[2\]\.z
*45 pad_uo_out_buf_I\[3\]\.z
*46 pad_uo_out_buf_I\[4\]\.z
*47 pad_uo_out_buf_I\[5\]\.z
*48 pad_uo_out_buf_I\[6\]\.z
*49 pad_uo_out_buf_I\[7\]\.z
*50 tie_guard_I\[0\]\.lo
*51 sel_cnt_buf_I\[8\]\.z
*52 sel_cnt_buf_I\[9\]\.z
*53 pad_ui_in_buf_I\[0\]\.z
*54 pad_ui_in_buf_I\[1\]\.z
*55 pad_ui_in_buf_I\[2\]\.z
*56 pad_ui_in_buf_I\[3\]\.z
*57 pad_ui_in_buf_I\[4\]\.z
*58 pad_ui_in_buf_I\[5\]\.z
*59 pad_ui_in_buf_I\[6\]\.z
*60 pad_ui_in_buf_I\[7\]\.z
*61 ctrl_ena_buf_I\.z
*62 pad_ui_in_buf_I\[8\]\.z
*63 pad_ui_in_buf_I\[9\]\.z
*64 pad_uio_in_buf_I\[0\]\.z
*65 pad_uio_in_buf_I\[1\]\.z
*66 pad_uio_in_buf_I\[2\]\.z
*67 pad_uio_in_buf_I\[3\]\.z
*68 pad_uio_in_buf_I\[4\]\.z
*69 pad_uio_in_buf_I\[5\]\.z
*70 pad_uio_in_buf_I\[6\]\.z
*71 pad_uio_in_buf_I\[7\]\.z
*72 sel_cnt_buf_I\[0\]\.z
*73 tie_guard_I\[1\]\.lo
*74 sel_cnt_buf_I\[1\]\.z
*75 sel_cnt_buf_I\[2\]\.z
*76 sel_cnt_buf_I\[3\]\.z
*77 sel_cnt_buf_I\[4\]\.z
*78 sel_cnt_buf_I\[5\]\.z
*79 sel_cnt_buf_I\[6\]\.z
*80 sel_cnt_buf_I\[7\]\.z
*81 spine_ow[0]
*82 spine_ow[10]
*83 spine_ow[11]
*84 spine_ow[12]
*85 spine_ow[13]
*86 spine_ow[14]
*87 spine_ow[15]
*88 spine_ow[16]
*89 spine_ow[17]
*90 spine_ow[18]
*91 spine_ow[19]
*92 spine_ow[1]
*93 spine_ow[20]
*94 spine_ow[21]
*95 spine_ow[22]
*96 spine_ow[23]
*97 spine_ow[24]
*98 spine_ow[25]
*99 spine_ow[2]
*100 spine_ow[3]
*101 spine_ow[4]
*102 spine_ow[5]
*103 spine_ow[6]
*104 spine_ow[7]
*105 spine_ow[8]
*106 spine_ow[9]
*107 ctrl_ibuf_I\[0\]\.z
*108 ctrl_ibuf_I\[1\]\.z
*109 genblk1\[0\]\.cnt_bit_I\.d
*110 genblk1\[0\]\.cnt_bit_I\.q
*111 genblk1\[1\]\.cnt_bit_I\.d
*112 genblk1\[1\]\.cnt_bit_I\.q
*113 genblk1\[2\]\.cnt_bit_I\.d
*114 genblk1\[2\]\.cnt_bit_I\.q
*115 genblk1\[3\]\.cnt_bit_I\.d
*116 genblk1\[3\]\.cnt_bit_I\.q
*117 genblk1\[4\]\.cnt_bit_I\.d
*118 genblk1\[4\]\.cnt_bit_I\.q
*119 genblk1\[5\]\.cnt_bit_I\.d
*120 genblk1\[5\]\.cnt_bit_I\.q
*121 genblk1\[6\]\.cnt_bit_I\.d
*122 genblk1\[6\]\.cnt_bit_I\.q
*123 genblk1\[7\]\.cnt_bit_I\.d
*124 genblk1\[7\]\.cnt_bit_I\.q
*125 genblk1\[8\]\.cnt_bit_I\.d
*126 genblk1\[8\]\.cnt_bit_I\.q
*127 genblk1\[9\]\.cnt_bit_I\.d
*128 genblk1\[9\]\.cnt_bit_I\.q
*129 tie_guard_I\[0\]\.hi
*130 tie_guard_I\[1\]\.hi
*131 FILLER_0_109
*132 FILLER_0_113
*133 FILLER_0_125
*134 FILLER_0_137
*135 FILLER_0_141
*136 FILLER_0_15
*137 FILLER_0_153
*138 FILLER_0_165
*139 FILLER_0_169
*140 FILLER_0_181
*141 FILLER_0_193
*142 FILLER_0_197
*143 FILLER_0_209
*144 FILLER_0_221
*145 FILLER_0_225
*146 FILLER_0_237
*147 FILLER_0_249
*148 FILLER_0_253
*149 FILLER_0_265
*150 FILLER_0_27
*151 FILLER_0_277
*152 FILLER_0_281
*153 FILLER_0_29
*154 FILLER_0_293
*155 FILLER_0_3
*156 FILLER_0_305
*157 FILLER_0_309
*158 FILLER_0_321
*159 FILLER_0_333
*160 FILLER_0_337
*161 FILLER_0_349
*162 FILLER_0_361
*163 FILLER_0_365
*164 FILLER_0_377
*165 FILLER_0_41
*166 FILLER_0_53
*167 FILLER_0_57
*168 FILLER_0_69
*169 FILLER_0_81
*170 FILLER_0_85
*171 FILLER_0_97
*172 FILLER_10_109
*173 FILLER_10_121
*174 FILLER_10_133
*175 FILLER_10_139
*176 FILLER_10_141
*177 FILLER_10_15
*178 FILLER_10_153
*179 FILLER_10_165
*180 FILLER_10_177
*181 FILLER_10_189
*182 FILLER_10_195
*183 FILLER_10_197
*184 FILLER_10_209
*185 FILLER_10_221
*186 FILLER_10_233
*187 FILLER_10_245
*188 FILLER_10_251
*189 FILLER_10_253
*190 FILLER_10_265
*191 FILLER_10_27
*192 FILLER_10_277
*193 FILLER_10_289
*194 FILLER_10_29
*195 FILLER_10_3
*196 FILLER_10_301
*197 FILLER_10_307
*198 FILLER_10_309
*199 FILLER_10_321
*200 FILLER_10_333
*201 FILLER_10_345
*202 FILLER_10_357
*203 FILLER_10_363
*204 FILLER_10_365
*205 FILLER_10_377
*206 FILLER_10_41
*207 FILLER_10_53
*208 FILLER_10_65
*209 FILLER_10_77
*210 FILLER_10_83
*211 FILLER_10_85
*212 FILLER_10_97
*213 FILLER_11_105
*214 FILLER_11_111
*215 FILLER_11_113
*216 FILLER_11_125
*217 FILLER_11_137
*218 FILLER_11_149
*219 FILLER_11_15
*220 FILLER_11_161
*221 FILLER_11_167
*222 FILLER_11_169
*223 FILLER_11_181
*224 FILLER_11_193
*225 FILLER_11_205
*226 FILLER_11_217
*227 FILLER_11_223
*228 FILLER_11_225
*229 FILLER_11_237
*230 FILLER_11_249
*231 FILLER_11_261
*232 FILLER_11_27
*233 FILLER_11_273
*234 FILLER_11_279
*235 FILLER_11_281
*236 FILLER_11_293
*237 FILLER_11_3
*238 FILLER_11_305
*239 FILLER_11_317
*240 FILLER_11_329
*241 FILLER_11_335
*242 FILLER_11_337
*243 FILLER_11_349
*244 FILLER_11_361
*245 FILLER_11_373
*246 FILLER_11_385
*247 FILLER_11_39
*248 FILLER_11_51
*249 FILLER_11_55
*250 FILLER_11_57
*251 FILLER_11_69
*252 FILLER_11_81
*253 FILLER_11_93
*254 FILLER_12_109
*255 FILLER_12_121
*256 FILLER_12_133
*257 FILLER_12_139
*258 FILLER_12_141
*259 FILLER_12_15
*260 FILLER_12_153
*261 FILLER_12_165
*262 FILLER_12_177
*263 FILLER_12_189
*264 FILLER_12_195
*265 FILLER_12_197
*266 FILLER_12_209
*267 FILLER_12_221
*268 FILLER_12_233
*269 FILLER_12_245
*270 FILLER_12_251
*271 FILLER_12_253
*272 FILLER_12_265
*273 FILLER_12_27
*274 FILLER_12_277
*275 FILLER_12_289
*276 FILLER_12_29
*277 FILLER_12_3
*278 FILLER_12_301
*279 FILLER_12_307
*280 FILLER_12_309
*281 FILLER_12_321
*282 FILLER_12_333
*283 FILLER_12_345
*284 FILLER_12_357
*285 FILLER_12_363
*286 FILLER_12_365
*287 FILLER_12_377
*288 FILLER_12_41
*289 FILLER_12_53
*290 FILLER_12_65
*291 FILLER_12_77
*292 FILLER_12_83
*293 FILLER_12_85
*294 FILLER_12_97
*295 FILLER_13_105
*296 FILLER_13_111
*297 FILLER_13_113
*298 FILLER_13_125
*299 FILLER_13_137
*300 FILLER_13_149
*301 FILLER_13_15
*302 FILLER_13_161
*303 FILLER_13_167
*304 FILLER_13_169
*305 FILLER_13_181
*306 FILLER_13_193
*307 FILLER_13_205
*308 FILLER_13_217
*309 FILLER_13_223
*310 FILLER_13_225
*311 FILLER_13_27
*312 FILLER_13_276
*313 FILLER_13_281
*314 FILLER_13_293
*315 FILLER_13_3
*316 FILLER_13_305
*317 FILLER_13_317
*318 FILLER_13_329
*319 FILLER_13_335
*320 FILLER_13_337
*321 FILLER_13_349
*322 FILLER_13_361
*323 FILLER_13_373
*324 FILLER_13_385
*325 FILLER_13_39
*326 FILLER_13_51
*327 FILLER_13_55
*328 FILLER_13_57
*329 FILLER_13_69
*330 FILLER_13_81
*331 FILLER_13_93
*332 FILLER_14_109
*333 FILLER_14_121
*334 FILLER_14_133
*335 FILLER_14_139
*336 FILLER_14_141
*337 FILLER_14_15
*338 FILLER_14_153
*339 FILLER_14_165
*340 FILLER_14_177
*341 FILLER_14_189
*342 FILLER_14_195
*343 FILLER_14_197
*344 FILLER_14_209
*345 FILLER_14_221
*346 FILLER_14_233
*347 FILLER_14_245
*348 FILLER_14_251
*349 FILLER_14_27
*350 FILLER_14_277
*351 FILLER_14_29
*352 FILLER_14_3
*353 FILLER_14_301
*354 FILLER_14_307
*355 FILLER_14_309
*356 FILLER_14_321
*357 FILLER_14_333
*358 FILLER_14_345
*359 FILLER_14_357
*360 FILLER_14_363
*361 FILLER_14_365
*362 FILLER_14_377
*363 FILLER_14_41
*364 FILLER_14_53
*365 FILLER_14_65
*366 FILLER_14_77
*367 FILLER_14_83
*368 FILLER_14_85
*369 FILLER_14_97
*370 FILLER_15_105
*371 FILLER_15_111
*372 FILLER_15_113
*373 FILLER_15_125
*374 FILLER_15_137
*375 FILLER_15_149
*376 FILLER_15_15
*377 FILLER_15_161
*378 FILLER_15_167
*379 FILLER_15_169
*380 FILLER_15_181
*381 FILLER_15_193
*382 FILLER_15_205
*383 FILLER_15_217
*384 FILLER_15_223
*385 FILLER_15_225
*386 FILLER_15_237
*387 FILLER_15_249
*388 FILLER_15_255
*389 FILLER_15_27
*390 FILLER_15_281
*391 FILLER_15_293
*392 FILLER_15_299
*393 FILLER_15_3
*394 FILLER_15_312
*395 FILLER_15_324
*396 FILLER_15_337
*397 FILLER_15_349
*398 FILLER_15_361
*399 FILLER_15_373
*400 FILLER_15_385
*401 FILLER_15_39
*402 FILLER_15_51
*403 FILLER_15_55
*404 FILLER_15_57
*405 FILLER_15_69
*406 FILLER_15_81
*407 FILLER_15_93
*408 FILLER_16_109
*409 FILLER_16_121
*410 FILLER_16_133
*411 FILLER_16_139
*412 FILLER_16_141
*413 FILLER_16_15
*414 FILLER_16_153
*415 FILLER_16_165
*416 FILLER_16_177
*417 FILLER_16_189
*418 FILLER_16_195
*419 FILLER_16_197
*420 FILLER_16_209
*421 FILLER_16_221
*422 FILLER_16_233
*423 FILLER_16_245
*424 FILLER_16_251
*425 FILLER_16_253
*426 FILLER_16_265
*427 FILLER_16_27
*428 FILLER_16_277
*429 FILLER_16_289
*430 FILLER_16_29
*431 FILLER_16_3
*432 FILLER_16_301
*433 FILLER_16_307
*434 FILLER_16_309
*435 FILLER_16_321
*436 FILLER_16_333
*437 FILLER_16_345
*438 FILLER_16_357
*439 FILLER_16_363
*440 FILLER_16_365
*441 FILLER_16_377
*442 FILLER_16_41
*443 FILLER_16_53
*444 FILLER_16_65
*445 FILLER_16_77
*446 FILLER_16_83
*447 FILLER_16_85
*448 FILLER_16_97
*449 FILLER_17_105
*450 FILLER_17_111
*451 FILLER_17_113
*452 FILLER_17_125
*453 FILLER_17_137
*454 FILLER_17_149
*455 FILLER_17_15
*456 FILLER_17_161
*457 FILLER_17_167
*458 FILLER_17_169
*459 FILLER_17_181
*460 FILLER_17_193
*461 FILLER_17_205
*462 FILLER_17_217
*463 FILLER_17_223
*464 FILLER_17_225
*465 FILLER_17_252
*466 FILLER_17_27
*467 FILLER_17_277
*468 FILLER_17_281
*469 FILLER_17_293
*470 FILLER_17_3
*471 FILLER_17_301
*472 FILLER_17_314
*473 FILLER_17_326
*474 FILLER_17_334
*475 FILLER_17_337
*476 FILLER_17_349
*477 FILLER_17_361
*478 FILLER_17_373
*479 FILLER_17_385
*480 FILLER_17_39
*481 FILLER_17_51
*482 FILLER_17_55
*483 FILLER_17_57
*484 FILLER_17_69
*485 FILLER_17_81
*486 FILLER_17_93
*487 FILLER_18_109
*488 FILLER_18_121
*489 FILLER_18_133
*490 FILLER_18_139
*491 FILLER_18_141
*492 FILLER_18_15
*493 FILLER_18_153
*494 FILLER_18_165
*495 FILLER_18_177
*496 FILLER_18_189
*497 FILLER_18_195
*498 FILLER_18_197
*499 FILLER_18_209
*500 FILLER_18_217
*501 FILLER_18_243
*502 FILLER_18_251
*503 FILLER_18_253
*504 FILLER_18_265
*505 FILLER_18_27
*506 FILLER_18_277
*507 FILLER_18_289
*508 FILLER_18_29
*509 FILLER_18_3
*510 FILLER_18_301
*511 FILLER_18_307
*512 FILLER_18_321
*513 FILLER_18_333
*514 FILLER_18_345
*515 FILLER_18_357
*516 FILLER_18_363
*517 FILLER_18_365
*518 FILLER_18_377
*519 FILLER_18_41
*520 FILLER_18_53
*521 FILLER_18_65
*522 FILLER_18_77
*523 FILLER_18_83
*524 FILLER_18_85
*525 FILLER_18_97
*526 FILLER_19_105
*527 FILLER_19_111
*528 FILLER_19_113
*529 FILLER_19_125
*530 FILLER_19_137
*531 FILLER_19_149
*532 FILLER_19_15
*533 FILLER_19_161
*534 FILLER_19_167
*535 FILLER_19_169
*536 FILLER_19_181
*537 FILLER_19_189
*538 FILLER_19_194
*539 FILLER_19_206
*540 FILLER_19_218
*541 FILLER_19_27
*542 FILLER_19_273
*543 FILLER_19_279
*544 FILLER_19_281
*545 FILLER_19_293
*546 FILLER_19_3
*547 FILLER_19_308
*548 FILLER_19_314
*549 FILLER_19_326
*550 FILLER_19_334
*551 FILLER_19_337
*552 FILLER_19_349
*553 FILLER_19_361
*554 FILLER_19_373
*555 FILLER_19_385
*556 FILLER_19_39
*557 FILLER_19_51
*558 FILLER_19_55
*559 FILLER_19_57
*560 FILLER_19_69
*561 FILLER_19_81
*562 FILLER_19_93
*563 FILLER_1_105
*564 FILLER_1_111
*565 FILLER_1_113
*566 FILLER_1_125
*567 FILLER_1_137
*568 FILLER_1_149
*569 FILLER_1_15
*570 FILLER_1_161
*571 FILLER_1_167
*572 FILLER_1_169
*573 FILLER_1_181
*574 FILLER_1_193
*575 FILLER_1_205
*576 FILLER_1_217
*577 FILLER_1_223
*578 FILLER_1_225
*579 FILLER_1_237
*580 FILLER_1_249
*581 FILLER_1_261
*582 FILLER_1_27
*583 FILLER_1_273
*584 FILLER_1_279
*585 FILLER_1_281
*586 FILLER_1_293
*587 FILLER_1_3
*588 FILLER_1_305
*589 FILLER_1_317
*590 FILLER_1_329
*591 FILLER_1_335
*592 FILLER_1_337
*593 FILLER_1_349
*594 FILLER_1_361
*595 FILLER_1_373
*596 FILLER_1_385
*597 FILLER_1_42
*598 FILLER_1_54
*599 FILLER_1_57
*600 FILLER_1_69
*601 FILLER_1_81
*602 FILLER_1_93
*603 FILLER_20_109
*604 FILLER_20_121
*605 FILLER_20_133
*606 FILLER_20_139
*607 FILLER_20_141
*608 FILLER_20_15
*609 FILLER_20_153
*610 FILLER_20_165
*611 FILLER_20_177
*612 FILLER_20_189
*613 FILLER_20_195
*614 FILLER_20_197
*615 FILLER_20_209
*616 FILLER_20_221
*617 FILLER_20_227
*618 FILLER_20_253
*619 FILLER_20_265
*620 FILLER_20_27
*621 FILLER_20_280
*622 FILLER_20_29
*623 FILLER_20_3
*624 FILLER_20_305
*625 FILLER_20_309
*626 FILLER_20_321
*627 FILLER_20_333
*628 FILLER_20_345
*629 FILLER_20_357
*630 FILLER_20_363
*631 FILLER_20_365
*632 FILLER_20_377
*633 FILLER_20_41
*634 FILLER_20_53
*635 FILLER_20_65
*636 FILLER_20_77
*637 FILLER_20_83
*638 FILLER_20_85
*639 FILLER_20_97
*640 FILLER_21_105
*641 FILLER_21_111
*642 FILLER_21_113
*643 FILLER_21_125
*644 FILLER_21_137
*645 FILLER_21_149
*646 FILLER_21_15
*647 FILLER_21_161
*648 FILLER_21_167
*649 FILLER_21_169
*650 FILLER_21_181
*651 FILLER_21_193
*652 FILLER_21_205
*653 FILLER_21_217
*654 FILLER_21_223
*655 FILLER_21_225
*656 FILLER_21_237
*657 FILLER_21_249
*658 FILLER_21_261
*659 FILLER_21_27
*660 FILLER_21_279
*661 FILLER_21_293
*662 FILLER_21_3
*663 FILLER_21_305
*664 FILLER_21_317
*665 FILLER_21_329
*666 FILLER_21_335
*667 FILLER_21_337
*668 FILLER_21_349
*669 FILLER_21_361
*670 FILLER_21_373
*671 FILLER_21_385
*672 FILLER_21_39
*673 FILLER_21_51
*674 FILLER_21_55
*675 FILLER_21_57
*676 FILLER_21_69
*677 FILLER_21_81
*678 FILLER_21_93
*679 FILLER_22_109
*680 FILLER_22_121
*681 FILLER_22_133
*682 FILLER_22_139
*683 FILLER_22_141
*684 FILLER_22_15
*685 FILLER_22_153
*686 FILLER_22_165
*687 FILLER_22_177
*688 FILLER_22_189
*689 FILLER_22_195
*690 FILLER_22_197
*691 FILLER_22_209
*692 FILLER_22_221
*693 FILLER_22_233
*694 FILLER_22_245
*695 FILLER_22_251
*696 FILLER_22_253
*697 FILLER_22_265
*698 FILLER_22_27
*699 FILLER_22_277
*700 FILLER_22_289
*701 FILLER_22_29
*702 FILLER_22_3
*703 FILLER_22_301
*704 FILLER_22_307
*705 FILLER_22_309
*706 FILLER_22_321
*707 FILLER_22_333
*708 FILLER_22_345
*709 FILLER_22_357
*710 FILLER_22_363
*711 FILLER_22_365
*712 FILLER_22_377
*713 FILLER_22_41
*714 FILLER_22_53
*715 FILLER_22_65
*716 FILLER_22_77
*717 FILLER_22_83
*718 FILLER_22_85
*719 FILLER_22_97
*720 FILLER_23_105
*721 FILLER_23_111
*722 FILLER_23_113
*723 FILLER_23_125
*724 FILLER_23_137
*725 FILLER_23_149
*726 FILLER_23_15
*727 FILLER_23_161
*728 FILLER_23_167
*729 FILLER_23_169
*730 FILLER_23_181
*731 FILLER_23_193
*732 FILLER_23_205
*733 FILLER_23_217
*734 FILLER_23_223
*735 FILLER_23_225
*736 FILLER_23_237
*737 FILLER_23_249
*738 FILLER_23_261
*739 FILLER_23_27
*740 FILLER_23_273
*741 FILLER_23_279
*742 FILLER_23_281
*743 FILLER_23_293
*744 FILLER_23_3
*745 FILLER_23_305
*746 FILLER_23_317
*747 FILLER_23_329
*748 FILLER_23_335
*749 FILLER_23_337
*750 FILLER_23_349
*751 FILLER_23_361
*752 FILLER_23_373
*753 FILLER_23_385
*754 FILLER_23_39
*755 FILLER_23_51
*756 FILLER_23_55
*757 FILLER_23_57
*758 FILLER_23_69
*759 FILLER_23_81
*760 FILLER_23_93
*761 FILLER_24_109
*762 FILLER_24_121
*763 FILLER_24_133
*764 FILLER_24_139
*765 FILLER_24_141
*766 FILLER_24_15
*767 FILLER_24_153
*768 FILLER_24_165
*769 FILLER_24_177
*770 FILLER_24_189
*771 FILLER_24_195
*772 FILLER_24_197
*773 FILLER_24_209
*774 FILLER_24_221
*775 FILLER_24_233
*776 FILLER_24_245
*777 FILLER_24_251
*778 FILLER_24_253
*779 FILLER_24_265
*780 FILLER_24_27
*781 FILLER_24_277
*782 FILLER_24_289
*783 FILLER_24_29
*784 FILLER_24_3
*785 FILLER_24_301
*786 FILLER_24_307
*787 FILLER_24_309
*788 FILLER_24_321
*789 FILLER_24_333
*790 FILLER_24_345
*791 FILLER_24_357
*792 FILLER_24_363
*793 FILLER_24_365
*794 FILLER_24_377
*795 FILLER_24_41
*796 FILLER_24_53
*797 FILLER_24_65
*798 FILLER_24_77
*799 FILLER_24_83
*800 FILLER_24_85
*801 FILLER_24_97
*802 FILLER_25_105
*803 FILLER_25_111
*804 FILLER_25_113
*805 FILLER_25_125
*806 FILLER_25_137
*807 FILLER_25_149
*808 FILLER_25_15
*809 FILLER_25_161
*810 FILLER_25_167
*811 FILLER_25_169
*812 FILLER_25_181
*813 FILLER_25_193
*814 FILLER_25_205
*815 FILLER_25_217
*816 FILLER_25_223
*817 FILLER_25_225
*818 FILLER_25_237
*819 FILLER_25_249
*820 FILLER_25_261
*821 FILLER_25_27
*822 FILLER_25_273
*823 FILLER_25_279
*824 FILLER_25_281
*825 FILLER_25_293
*826 FILLER_25_3
*827 FILLER_25_305
*828 FILLER_25_317
*829 FILLER_25_329
*830 FILLER_25_335
*831 FILLER_25_337
*832 FILLER_25_349
*833 FILLER_25_361
*834 FILLER_25_373
*835 FILLER_25_385
*836 FILLER_25_39
*837 FILLER_25_51
*838 FILLER_25_55
*839 FILLER_25_57
*840 FILLER_25_69
*841 FILLER_25_81
*842 FILLER_25_93
*843 FILLER_26_109
*844 FILLER_26_121
*845 FILLER_26_133
*846 FILLER_26_139
*847 FILLER_26_141
*848 FILLER_26_15
*849 FILLER_26_153
*850 FILLER_26_165
*851 FILLER_26_177
*852 FILLER_26_189
*853 FILLER_26_195
*854 FILLER_26_197
*855 FILLER_26_209
*856 FILLER_26_221
*857 FILLER_26_233
*858 FILLER_26_245
*859 FILLER_26_251
*860 FILLER_26_253
*861 FILLER_26_265
*862 FILLER_26_27
*863 FILLER_26_277
*864 FILLER_26_289
*865 FILLER_26_29
*866 FILLER_26_3
*867 FILLER_26_301
*868 FILLER_26_307
*869 FILLER_26_309
*870 FILLER_26_321
*871 FILLER_26_333
*872 FILLER_26_345
*873 FILLER_26_357
*874 FILLER_26_363
*875 FILLER_26_365
*876 FILLER_26_377
*877 FILLER_26_41
*878 FILLER_26_53
*879 FILLER_26_65
*880 FILLER_26_77
*881 FILLER_26_83
*882 FILLER_26_85
*883 FILLER_26_97
*884 FILLER_27_105
*885 FILLER_27_111
*886 FILLER_27_113
*887 FILLER_27_125
*888 FILLER_27_137
*889 FILLER_27_149
*890 FILLER_27_15
*891 FILLER_27_161
*892 FILLER_27_167
*893 FILLER_27_169
*894 FILLER_27_181
*895 FILLER_27_193
*896 FILLER_27_205
*897 FILLER_27_217
*898 FILLER_27_223
*899 FILLER_27_225
*900 FILLER_27_237
*901 FILLER_27_249
*902 FILLER_27_261
*903 FILLER_27_27
*904 FILLER_27_273
*905 FILLER_27_279
*906 FILLER_27_281
*907 FILLER_27_293
*908 FILLER_27_3
*909 FILLER_27_305
*910 FILLER_27_317
*911 FILLER_27_329
*912 FILLER_27_335
*913 FILLER_27_337
*914 FILLER_27_349
*915 FILLER_27_361
*916 FILLER_27_373
*917 FILLER_27_385
*918 FILLER_27_39
*919 FILLER_27_51
*920 FILLER_27_55
*921 FILLER_27_57
*922 FILLER_27_69
*923 FILLER_27_81
*924 FILLER_27_93
*925 FILLER_28_109
*926 FILLER_28_121
*927 FILLER_28_133
*928 FILLER_28_139
*929 FILLER_28_141
*930 FILLER_28_15
*931 FILLER_28_153
*932 FILLER_28_165
*933 FILLER_28_177
*934 FILLER_28_189
*935 FILLER_28_195
*936 FILLER_28_197
*937 FILLER_28_209
*938 FILLER_28_221
*939 FILLER_28_233
*940 FILLER_28_245
*941 FILLER_28_251
*942 FILLER_28_253
*943 FILLER_28_265
*944 FILLER_28_27
*945 FILLER_28_277
*946 FILLER_28_289
*947 FILLER_28_29
*948 FILLER_28_3
*949 FILLER_28_301
*950 FILLER_28_307
*951 FILLER_28_309
*952 FILLER_28_321
*953 FILLER_28_333
*954 FILLER_28_345
*955 FILLER_28_357
*956 FILLER_28_363
*957 FILLER_28_365
*958 FILLER_28_377
*959 FILLER_28_41
*960 FILLER_28_53
*961 FILLER_28_65
*962 FILLER_28_77
*963 FILLER_28_83
*964 FILLER_28_85
*965 FILLER_28_97
*966 FILLER_29_108
*967 FILLER_29_113
*968 FILLER_29_125
*969 FILLER_29_137
*970 FILLER_29_145
*971 FILLER_29_15
*972 FILLER_29_159
*973 FILLER_29_167
*974 FILLER_29_169
*975 FILLER_29_181
*976 FILLER_29_189
*977 FILLER_29_202
*978 FILLER_29_214
*979 FILLER_29_222
*980 FILLER_29_225
*981 FILLER_29_237
*982 FILLER_29_249
*983 FILLER_29_261
*984 FILLER_29_27
*985 FILLER_29_273
*986 FILLER_29_279
*987 FILLER_29_281
*988 FILLER_29_293
*989 FILLER_29_3
*990 FILLER_29_305
*991 FILLER_29_31
*992 FILLER_29_317
*993 FILLER_29_329
*994 FILLER_29_335
*995 FILLER_29_337
*996 FILLER_29_349
*997 FILLER_29_361
*998 FILLER_29_373
*999 FILLER_29_385
*1000 FILLER_29_41
*1001 FILLER_29_52
*1002 FILLER_29_66
*1003 FILLER_29_76
*1004 FILLER_29_96
*1005 FILLER_2_109
*1006 FILLER_2_121
*1007 FILLER_2_133
*1008 FILLER_2_139
*1009 FILLER_2_141
*1010 FILLER_2_15
*1011 FILLER_2_153
*1012 FILLER_2_165
*1013 FILLER_2_177
*1014 FILLER_2_189
*1015 FILLER_2_195
*1016 FILLER_2_197
*1017 FILLER_2_209
*1018 FILLER_2_221
*1019 FILLER_2_233
*1020 FILLER_2_245
*1021 FILLER_2_251
*1022 FILLER_2_253
*1023 FILLER_2_265
*1024 FILLER_2_27
*1025 FILLER_2_277
*1026 FILLER_2_289
*1027 FILLER_2_29
*1028 FILLER_2_3
*1029 FILLER_2_301
*1030 FILLER_2_307
*1031 FILLER_2_309
*1032 FILLER_2_321
*1033 FILLER_2_333
*1034 FILLER_2_345
*1035 FILLER_2_357
*1036 FILLER_2_363
*1037 FILLER_2_365
*1038 FILLER_2_377
*1039 FILLER_2_41
*1040 FILLER_2_53
*1041 FILLER_2_65
*1042 FILLER_2_77
*1043 FILLER_2_83
*1044 FILLER_2_85
*1045 FILLER_2_97
*1046 FILLER_30_119
*1047 FILLER_30_131
*1048 FILLER_30_139
*1049 FILLER_30_141
*1050 FILLER_30_149
*1051 FILLER_30_15
*1052 FILLER_30_176
*1053 FILLER_30_197
*1054 FILLER_30_213
*1055 FILLER_30_225
*1056 FILLER_30_237
*1057 FILLER_30_249
*1058 FILLER_30_253
*1059 FILLER_30_265
*1060 FILLER_30_27
*1061 FILLER_30_277
*1062 FILLER_30_289
*1063 FILLER_30_29
*1064 FILLER_30_3
*1065 FILLER_30_303
*1066 FILLER_30_307
*1067 FILLER_30_321
*1068 FILLER_30_336
*1069 FILLER_30_348
*1070 FILLER_30_360
*1071 FILLER_30_365
*1072 FILLER_30_377
*1073 FILLER_30_49
*1074 FILLER_30_64
*1075 FILLER_30_79
*1076 FILLER_30_83
*1077 FILLER_30_94
*1078 FILLER_31_105
*1079 FILLER_31_111
*1080 FILLER_31_113
*1081 FILLER_31_125
*1082 FILLER_31_133
*1083 FILLER_31_143
*1084 FILLER_31_15
*1085 FILLER_31_155
*1086 FILLER_31_167
*1087 FILLER_31_169
*1088 FILLER_31_218
*1089 FILLER_31_225
*1090 FILLER_31_237
*1091 FILLER_31_249
*1092 FILLER_31_261
*1093 FILLER_31_27
*1094 FILLER_31_273
*1095 FILLER_31_279
*1096 FILLER_31_281
*1097 FILLER_31_3
*1098 FILLER_31_330
*1099 FILLER_31_349
*1100 FILLER_31_361
*1101 FILLER_31_373
*1102 FILLER_31_385
*1103 FILLER_31_39
*1104 FILLER_31_51
*1105 FILLER_31_55
*1106 FILLER_31_57
*1107 FILLER_31_69
*1108 FILLER_31_81
*1109 FILLER_31_93
*1110 FILLER_32_109
*1111 FILLER_32_121
*1112 FILLER_32_133
*1113 FILLER_32_139
*1114 FILLER_32_141
*1115 FILLER_32_15
*1116 FILLER_32_153
*1117 FILLER_32_161
*1118 FILLER_32_175
*1119 FILLER_32_183
*1120 FILLER_32_197
*1121 FILLER_32_209
*1122 FILLER_32_224
*1123 FILLER_32_236
*1124 FILLER_32_248
*1125 FILLER_32_253
*1126 FILLER_32_265
*1127 FILLER_32_27
*1128 FILLER_32_277
*1129 FILLER_32_289
*1130 FILLER_32_29
*1131 FILLER_32_3
*1132 FILLER_32_301
*1133 FILLER_32_307
*1134 FILLER_32_309
*1135 FILLER_32_321
*1136 FILLER_32_333
*1137 FILLER_32_345
*1138 FILLER_32_357
*1139 FILLER_32_363
*1140 FILLER_32_365
*1141 FILLER_32_377
*1142 FILLER_32_41
*1143 FILLER_32_53
*1144 FILLER_32_65
*1145 FILLER_32_77
*1146 FILLER_32_83
*1147 FILLER_32_85
*1148 FILLER_32_97
*1149 FILLER_33_105
*1150 FILLER_33_111
*1151 FILLER_33_113
*1152 FILLER_33_125
*1153 FILLER_33_137
*1154 FILLER_33_149
*1155 FILLER_33_15
*1156 FILLER_33_161
*1157 FILLER_33_167
*1158 FILLER_33_169
*1159 FILLER_33_177
*1160 FILLER_33_192
*1161 FILLER_33_204
*1162 FILLER_33_216
*1163 FILLER_33_225
*1164 FILLER_33_237
*1165 FILLER_33_249
*1166 FILLER_33_261
*1167 FILLER_33_27
*1168 FILLER_33_273
*1169 FILLER_33_279
*1170 FILLER_33_281
*1171 FILLER_33_293
*1172 FILLER_33_3
*1173 FILLER_33_305
*1174 FILLER_33_317
*1175 FILLER_33_329
*1176 FILLER_33_335
*1177 FILLER_33_337
*1178 FILLER_33_349
*1179 FILLER_33_361
*1180 FILLER_33_373
*1181 FILLER_33_385
*1182 FILLER_33_39
*1183 FILLER_33_51
*1184 FILLER_33_55
*1185 FILLER_33_57
*1186 FILLER_33_69
*1187 FILLER_33_81
*1188 FILLER_33_93
*1189 FILLER_34_109
*1190 FILLER_34_121
*1191 FILLER_34_133
*1192 FILLER_34_139
*1193 FILLER_34_141
*1194 FILLER_34_15
*1195 FILLER_34_153
*1196 FILLER_34_165
*1197 FILLER_34_177
*1198 FILLER_34_189
*1199 FILLER_34_195
*1200 FILLER_34_197
*1201 FILLER_34_209
*1202 FILLER_34_221
*1203 FILLER_34_233
*1204 FILLER_34_245
*1205 FILLER_34_251
*1206 FILLER_34_253
*1207 FILLER_34_265
*1208 FILLER_34_27
*1209 FILLER_34_277
*1210 FILLER_34_289
*1211 FILLER_34_29
*1212 FILLER_34_3
*1213 FILLER_34_301
*1214 FILLER_34_307
*1215 FILLER_34_309
*1216 FILLER_34_321
*1217 FILLER_34_333
*1218 FILLER_34_345
*1219 FILLER_34_357
*1220 FILLER_34_363
*1221 FILLER_34_365
*1222 FILLER_34_377
*1223 FILLER_34_41
*1224 FILLER_34_53
*1225 FILLER_34_65
*1226 FILLER_34_77
*1227 FILLER_34_83
*1228 FILLER_34_85
*1229 FILLER_34_97
*1230 FILLER_35_105
*1231 FILLER_35_111
*1232 FILLER_35_113
*1233 FILLER_35_125
*1234 FILLER_35_137
*1235 FILLER_35_149
*1236 FILLER_35_15
*1237 FILLER_35_161
*1238 FILLER_35_167
*1239 FILLER_35_169
*1240 FILLER_35_181
*1241 FILLER_35_193
*1242 FILLER_35_205
*1243 FILLER_35_217
*1244 FILLER_35_223
*1245 FILLER_35_225
*1246 FILLER_35_237
*1247 FILLER_35_249
*1248 FILLER_35_261
*1249 FILLER_35_27
*1250 FILLER_35_273
*1251 FILLER_35_279
*1252 FILLER_35_281
*1253 FILLER_35_293
*1254 FILLER_35_3
*1255 FILLER_35_305
*1256 FILLER_35_317
*1257 FILLER_35_329
*1258 FILLER_35_335
*1259 FILLER_35_337
*1260 FILLER_35_349
*1261 FILLER_35_361
*1262 FILLER_35_373
*1263 FILLER_35_385
*1264 FILLER_35_39
*1265 FILLER_35_51
*1266 FILLER_35_55
*1267 FILLER_35_57
*1268 FILLER_35_69
*1269 FILLER_35_81
*1270 FILLER_35_93
*1271 FILLER_36_109
*1272 FILLER_36_121
*1273 FILLER_36_133
*1274 FILLER_36_139
*1275 FILLER_36_141
*1276 FILLER_36_15
*1277 FILLER_36_153
*1278 FILLER_36_165
*1279 FILLER_36_177
*1280 FILLER_36_189
*1281 FILLER_36_195
*1282 FILLER_36_197
*1283 FILLER_36_209
*1284 FILLER_36_221
*1285 FILLER_36_233
*1286 FILLER_36_245
*1287 FILLER_36_251
*1288 FILLER_36_253
*1289 FILLER_36_265
*1290 FILLER_36_27
*1291 FILLER_36_277
*1292 FILLER_36_289
*1293 FILLER_36_29
*1294 FILLER_36_3
*1295 FILLER_36_301
*1296 FILLER_36_307
*1297 FILLER_36_309
*1298 FILLER_36_321
*1299 FILLER_36_333
*1300 FILLER_36_345
*1301 FILLER_36_357
*1302 FILLER_36_363
*1303 FILLER_36_365
*1304 FILLER_36_377
*1305 FILLER_36_41
*1306 FILLER_36_53
*1307 FILLER_36_65
*1308 FILLER_36_77
*1309 FILLER_36_83
*1310 FILLER_36_85
*1311 FILLER_36_97
*1312 FILLER_37_105
*1313 FILLER_37_111
*1314 FILLER_37_113
*1315 FILLER_37_125
*1316 FILLER_37_137
*1317 FILLER_37_149
*1318 FILLER_37_15
*1319 FILLER_37_161
*1320 FILLER_37_167
*1321 FILLER_37_169
*1322 FILLER_37_181
*1323 FILLER_37_193
*1324 FILLER_37_205
*1325 FILLER_37_217
*1326 FILLER_37_223
*1327 FILLER_37_225
*1328 FILLER_37_237
*1329 FILLER_37_249
*1330 FILLER_37_261
*1331 FILLER_37_27
*1332 FILLER_37_273
*1333 FILLER_37_279
*1334 FILLER_37_281
*1335 FILLER_37_293
*1336 FILLER_37_3
*1337 FILLER_37_305
*1338 FILLER_37_317
*1339 FILLER_37_329
*1340 FILLER_37_335
*1341 FILLER_37_337
*1342 FILLER_37_349
*1343 FILLER_37_361
*1344 FILLER_37_373
*1345 FILLER_37_385
*1346 FILLER_37_39
*1347 FILLER_37_51
*1348 FILLER_37_55
*1349 FILLER_37_57
*1350 FILLER_37_69
*1351 FILLER_37_81
*1352 FILLER_37_93
*1353 FILLER_38_109
*1354 FILLER_38_113
*1355 FILLER_38_125
*1356 FILLER_38_137
*1357 FILLER_38_141
*1358 FILLER_38_15
*1359 FILLER_38_153
*1360 FILLER_38_165
*1361 FILLER_38_169
*1362 FILLER_38_181
*1363 FILLER_38_193
*1364 FILLER_38_197
*1365 FILLER_38_209
*1366 FILLER_38_221
*1367 FILLER_38_225
*1368 FILLER_38_237
*1369 FILLER_38_249
*1370 FILLER_38_253
*1371 FILLER_38_265
*1372 FILLER_38_27
*1373 FILLER_38_277
*1374 FILLER_38_281
*1375 FILLER_38_29
*1376 FILLER_38_293
*1377 FILLER_38_3
*1378 FILLER_38_305
*1379 FILLER_38_309
*1380 FILLER_38_321
*1381 FILLER_38_333
*1382 FILLER_38_337
*1383 FILLER_38_349
*1384 FILLER_38_361
*1385 FILLER_38_365
*1386 FILLER_38_377
*1387 FILLER_38_41
*1388 FILLER_38_53
*1389 FILLER_38_57
*1390 FILLER_38_69
*1391 FILLER_38_81
*1392 FILLER_38_85
*1393 FILLER_38_97
*1394 FILLER_3_105
*1395 FILLER_3_111
*1396 FILLER_3_113
*1397 FILLER_3_125
*1398 FILLER_3_137
*1399 FILLER_3_149
*1400 FILLER_3_15
*1401 FILLER_3_161
*1402 FILLER_3_167
*1403 FILLER_3_169
*1404 FILLER_3_181
*1405 FILLER_3_193
*1406 FILLER_3_205
*1407 FILLER_3_217
*1408 FILLER_3_223
*1409 FILLER_3_225
*1410 FILLER_3_237
*1411 FILLER_3_249
*1412 FILLER_3_261
*1413 FILLER_3_27
*1414 FILLER_3_273
*1415 FILLER_3_279
*1416 FILLER_3_281
*1417 FILLER_3_293
*1418 FILLER_3_3
*1419 FILLER_3_305
*1420 FILLER_3_317
*1421 FILLER_3_329
*1422 FILLER_3_335
*1423 FILLER_3_337
*1424 FILLER_3_349
*1425 FILLER_3_361
*1426 FILLER_3_373
*1427 FILLER_3_385
*1428 FILLER_3_39
*1429 FILLER_3_51
*1430 FILLER_3_55
*1431 FILLER_3_57
*1432 FILLER_3_69
*1433 FILLER_3_81
*1434 FILLER_3_93
*1435 FILLER_4_109
*1436 FILLER_4_121
*1437 FILLER_4_133
*1438 FILLER_4_139
*1439 FILLER_4_141
*1440 FILLER_4_15
*1441 FILLER_4_153
*1442 FILLER_4_165
*1443 FILLER_4_177
*1444 FILLER_4_189
*1445 FILLER_4_195
*1446 FILLER_4_197
*1447 FILLER_4_209
*1448 FILLER_4_221
*1449 FILLER_4_233
*1450 FILLER_4_245
*1451 FILLER_4_251
*1452 FILLER_4_253
*1453 FILLER_4_265
*1454 FILLER_4_27
*1455 FILLER_4_277
*1456 FILLER_4_289
*1457 FILLER_4_29
*1458 FILLER_4_3
*1459 FILLER_4_301
*1460 FILLER_4_307
*1461 FILLER_4_309
*1462 FILLER_4_321
*1463 FILLER_4_333
*1464 FILLER_4_345
*1465 FILLER_4_357
*1466 FILLER_4_363
*1467 FILLER_4_365
*1468 FILLER_4_377
*1469 FILLER_4_41
*1470 FILLER_4_53
*1471 FILLER_4_65
*1472 FILLER_4_77
*1473 FILLER_4_83
*1474 FILLER_4_85
*1475 FILLER_4_97
*1476 FILLER_5_105
*1477 FILLER_5_111
*1478 FILLER_5_113
*1479 FILLER_5_125
*1480 FILLER_5_137
*1481 FILLER_5_149
*1482 FILLER_5_15
*1483 FILLER_5_161
*1484 FILLER_5_167
*1485 FILLER_5_169
*1486 FILLER_5_181
*1487 FILLER_5_193
*1488 FILLER_5_205
*1489 FILLER_5_217
*1490 FILLER_5_223
*1491 FILLER_5_225
*1492 FILLER_5_237
*1493 FILLER_5_249
*1494 FILLER_5_261
*1495 FILLER_5_27
*1496 FILLER_5_273
*1497 FILLER_5_279
*1498 FILLER_5_281
*1499 FILLER_5_293
*1500 FILLER_5_3
*1501 FILLER_5_317
*1502 FILLER_5_329
*1503 FILLER_5_335
*1504 FILLER_5_337
*1505 FILLER_5_349
*1506 FILLER_5_361
*1507 FILLER_5_373
*1508 FILLER_5_385
*1509 FILLER_5_39
*1510 FILLER_5_51
*1511 FILLER_5_55
*1512 FILLER_5_57
*1513 FILLER_5_69
*1514 FILLER_5_81
*1515 FILLER_5_93
*1516 FILLER_6_109
*1517 FILLER_6_121
*1518 FILLER_6_133
*1519 FILLER_6_139
*1520 FILLER_6_141
*1521 FILLER_6_15
*1522 FILLER_6_153
*1523 FILLER_6_161
*1524 FILLER_6_174
*1525 FILLER_6_186
*1526 FILLER_6_194
*1527 FILLER_6_197
*1528 FILLER_6_201
*1529 FILLER_6_218
*1530 FILLER_6_230
*1531 FILLER_6_242
*1532 FILLER_6_250
*1533 FILLER_6_253
*1534 FILLER_6_265
*1535 FILLER_6_27