*SPEF "ieee 1481-1999"
*DESIGN "tt_mux"
*DATE "11:11:11 Fri 11 11, 1111"
*VENDOR "OpenRCX"
*PROGRAM "Parallel Extraction"
*VERSION "1.0"
*DESIGN_FLOW "NAME_SCOPE LOCAL" "PIN_CAP NONE"
*DIVIDER /
*DELIMITER :
*BUS_DELIMITER []
*T_UNIT 1 NS
*C_UNIT 1 PF
*R_UNIT 1 OHM
*L_UNIT 1 HENRY

*NAME_MAP
*3 addr[0]
*4 addr[1]
*5 addr[2]
*6 addr[3]
*7 addr[4]
*8 k_one
*9 k_zero
*10 spine_iw[0]
*11 spine_iw[10]
*12 spine_iw[11]
*13 spine_iw[12]
*14 spine_iw[13]
*15 spine_iw[14]
*16 spine_iw[15]
*17 spine_iw[16]
*18 spine_iw[17]
*19 spine_iw[18]
*20 spine_iw[19]
*21 spine_iw[1]
*22 spine_iw[20]
*23 spine_iw[21]
*24 spine_iw[22]
*25 spine_iw[23]
*26 spine_iw[24]
*27 spine_iw[25]
*28 spine_iw[26]
*29 spine_iw[27]
*30 spine_iw[28]
*31 spine_iw[29]
*32 spine_iw[2]
*33 spine_iw[30]
*34 spine_iw[3]
*35 spine_iw[4]
*36 spine_iw[5]
*37 spine_iw[6]
*38 spine_iw[7]
*39 spine_iw[8]
*40 spine_iw[9]
*41 tie_spine_guard_I\[0\]\.lo
*42 tbuf_spine_ow_I\[9\]\.z
*43 tbuf_spine_ow_I\[10\]\.z
*44 tbuf_spine_ow_I\[11\]\.z
*45 tbuf_spine_ow_I\[12\]\.z
*46 tbuf_spine_ow_I\[13\]\.z
*47 tbuf_spine_ow_I\[14\]\.z
*48 tbuf_spine_ow_I\[15\]\.z
*49 tbuf_spine_ow_I\[16\]\.z
*50 tbuf_spine_ow_I\[17\]\.z
*51 tbuf_spine_ow_I\[18\]\.z
*52 tbuf_spine_ow_I\[0\]\.z
*53 tbuf_spine_ow_I\[19\]\.z
*54 tbuf_spine_ow_I\[20\]\.z
*55 tbuf_spine_ow_I\[21\]\.z
*56 tbuf_spine_ow_I\[22\]\.z
*57 tbuf_spine_ow_I\[23\]\.z
*58 tie_spine_guard_I\[1\]\.lo
*59 tbuf_spine_ow_I\[1\]\.z
*60 tbuf_spine_ow_I\[2\]\.z
*61 tbuf_spine_ow_I\[3\]\.z
*62 tbuf_spine_ow_I\[4\]\.z
*63 tbuf_spine_ow_I\[5\]\.z
*64 tbuf_spine_ow_I\[6\]\.z
*65 tbuf_spine_ow_I\[7\]\.z
*66 tbuf_spine_ow_I\[8\]\.z
*67 col\[0\]\.zbuf_bot_ena_I\.z
*68 col\[5\]\.zbuf_bot_ena_I\.z
*69 col\[5\]\.zbuf_top_ena_I\.z
*70 col\[6\]\.zbuf_bot_ena_I\.z
*71 col\[6\]\.zbuf_top_ena_I\.z
*72 col\[7\]\.zbuf_bot_ena_I\.z
*73 col\[7\]\.zbuf_top_ena_I\.z
*74 col\[0\]\.zbuf_top_ena_I\.z
*75 col\[1\]\.zbuf_bot_ena_I\.z
*76 col\[1\]\.zbuf_top_ena_I\.z
*77 col\[2\]\.zbuf_bot_ena_I\.z
*78 col\[2\]\.zbuf_top_ena_I\.z
*79 col\[3\]\.zbuf_bot_ena_I\.z
*80 col\[3\]\.zbuf_top_ena_I\.z
*81 col\[4\]\.zbuf_bot_ena_I\.z
*82 col\[4\]\.zbuf_top_ena_I\.z
*83 col\[0\]\.zbuf_bot_iw_I\[0\]\.z
*84 col\[2\]\.zbuf_top_iw_I\[10\]\.z
*85 col\[2\]\.zbuf_top_iw_I\[11\]\.z
*86 col\[2\]\.zbuf_top_iw_I\[12\]\.z
*87 col\[2\]\.zbuf_top_iw_I\[13\]\.z
*88 col\[2\]\.zbuf_top_iw_I\[14\]\.z
*89 col\[2\]\.zbuf_top_iw_I\[15\]\.z
*90 col\[2\]\.zbuf_top_iw_I\[16\]\.z
*91 col\[2\]\.zbuf_top_iw_I\[17\]\.z
*92 col\[3\]\.zbuf_bot_iw_I\[0\]\.z
*93 col\[3\]\.zbuf_bot_iw_I\[1\]\.z
*94 col\[0\]\.zbuf_bot_iw_I\[10\]\.z
*95 col\[3\]\.zbuf_bot_iw_I\[2\]\.z
*96 col\[3\]\.zbuf_bot_iw_I\[3\]\.z
*97 col\[3\]\.zbuf_bot_iw_I\[4\]\.z
*98 col\[3\]\.zbuf_bot_iw_I\[5\]\.z
*99 col\[3\]\.zbuf_bot_iw_I\[6\]\.z
*100 col\[3\]\.zbuf_bot_iw_I\[7\]\.z
*101 col\[3\]\.zbuf_bot_iw_I\[8\]\.z
*102 col\[3\]\.zbuf_bot_iw_I\[9\]\.z
*103 col\[3\]\.zbuf_bot_iw_I\[10\]\.z
*104 col\[3\]\.zbuf_bot_iw_I\[11\]\.z
*105 col\[0\]\.zbuf_bot_iw_I\[11\]\.z
*106 col\[3\]\.zbuf_bot_iw_I\[12\]\.z
*107 col\[3\]\.zbuf_bot_iw_I\[13\]\.z
*108 col\[3\]\.zbuf_bot_iw_I\[14\]\.z
*109 col\[3\]\.zbuf_bot_iw_I\[15\]\.z
*110 col\[3\]\.zbuf_bot_iw_I\[16\]\.z
*111 col\[3\]\.zbuf_bot_iw_I\[17\]\.z
*112 col\[3\]\.zbuf_top_iw_I\[0\]\.z
*113 col\[3\]\.zbuf_top_iw_I\[1\]\.z
*114 col\[3\]\.zbuf_top_iw_I\[2\]\.z
*115 col\[3\]\.zbuf_top_iw_I\[3\]\.z
*116 col\[0\]\.zbuf_bot_iw_I\[12\]\.z
*117 col\[3\]\.zbuf_top_iw_I\[4\]\.z
*118 col\[3\]\.zbuf_top_iw_I\[5\]\.z
*119 col\[3\]\.zbuf_top_iw_I\[6\]\.z
*120 col\[3\]\.zbuf_top_iw_I\[7\]\.z
*121 col\[3\]\.zbuf_top_iw_I\[8\]\.z
*122 col\[3\]\.zbuf_top_iw_I\[9\]\.z
*123 col\[3\]\.zbuf_top_iw_I\[10\]\.z
*124 col\[3\]\.zbuf_top_iw_I\[11\]\.z
*125 col\[3\]\.zbuf_top_iw_I\[12\]\.z
*126 col\[3\]\.zbuf_top_iw_I\[13\]\.z
*127 col\[0\]\.zbuf_bot_iw_I\[13\]\.z
*128 col\[3\]\.zbuf_top_iw_I\[14\]\.z
*129 col\[3\]\.zbuf_top_iw_I\[15\]\.z
*130 col\[3\]\.zbuf_top_iw_I\[16\]\.z
*131 col\[3\]\.zbuf_top_iw_I\[17\]\.z
*132 col\[4\]\.zbuf_bot_iw_I\[0\]\.z
*133 col\[4\]\.zbuf_bot_iw_I\[1\]\.z
*134 col\[4\]\.zbuf_bot_iw_I\[2\]\.z
*135 col\[4\]\.zbuf_bot_iw_I\[3\]\.z
*136 col\[4\]\.zbuf_bot_iw_I\[4\]\.z
*137 col\[4\]\.zbuf_bot_iw_I\[5\]\.z
*138 col\[0\]\.zbuf_bot_iw_I\[14\]\.z
*139 col\[4\]\.zbuf_bot_iw_I\[6\]\.z
*140 col\[4\]\.zbuf_bot_iw_I\[7\]\.z
*141 col\[4\]\.zbuf_bot_iw_I\[8\]\.z
*142 col\[4\]\.zbuf_bot_iw_I\[9\]\.z
*143 col\[4\]\.zbuf_bot_iw_I\[10\]\.z
*144 col\[4\]\.zbuf_bot_iw_I\[11\]\.z
*145 col\[4\]\.zbuf_bot_iw_I\[12\]\.z
*146 col\[4\]\.zbuf_bot_iw_I\[13\]\.z
*147 col\[4\]\.zbuf_bot_iw_I\[14\]\.z
*148 col\[4\]\.zbuf_bot_iw_I\[15\]\.z
*149 col\[0\]\.zbuf_bot_iw_I\[15\]\.z
*150 col\[4\]\.zbuf_bot_iw_I\[16\]\.z
*151 col\[4\]\.zbuf_bot_iw_I\[17\]\.z
*152 col\[4\]\.zbuf_top_iw_I\[0\]\.z
*153 col\[4\]\.zbuf_top_iw_I\[1\]\.z
*154 col\[4\]\.zbuf_top_iw_I\[2\]\.z
*155 col\[4\]\.zbuf_top_iw_I\[3\]\.z
*156 col\[4\]\.zbuf_top_iw_I\[4\]\.z
*157 col\[4\]\.zbuf_top_iw_I\[5\]\.z
*158 col\[4\]\.zbuf_top_iw_I\[6\]\.z
*159 col\[4\]\.zbuf_top_iw_I\[7\]\.z
*160 col\[0\]\.zbuf_bot_iw_I\[16\]\.z
*161 col\[4\]\.zbuf_top_iw_I\[8\]\.z
*162 col\[4\]\.zbuf_top_iw_I\[9\]\.z
*163 col\[4\]\.zbuf_top_iw_I\[10\]\.z
*164 col\[4\]\.zbuf_top_iw_I\[11\]\.z
*165 col\[4\]\.zbuf_top_iw_I\[12\]\.z
*166 col\[4\]\.zbuf_top_iw_I\[13\]\.z
*167 col\[4\]\.zbuf_top_iw_I\[14\]\.z
*168 col\[4\]\.zbuf_top_iw_I\[15\]\.z
*169 col\[4\]\.zbuf_top_iw_I\[16\]\.z
*170 col\[4\]\.zbuf_top_iw_I\[17\]\.z
*171 col\[0\]\.zbuf_bot_iw_I\[17\]\.z
*172 col\[5\]\.zbuf_bot_iw_I\[0\]\.z
*173 col\[5\]\.zbuf_bot_iw_I\[1\]\.z
*174 col\[5\]\.zbuf_bot_iw_I\[2\]\.z
*175 col\[5\]\.zbuf_bot_iw_I\[3\]\.z
*176 col\[5\]\.zbuf_bot_iw_I\[4\]\.z
*177 col\[5\]\.zbuf_bot_iw_I\[5\]\.z
*178 col\[5\]\.zbuf_bot_iw_I\[6\]\.z
*179 col\[5\]\.zbuf_bot_iw_I\[7\]\.z
*180 col\[5\]\.zbuf_bot_iw_I\[8\]\.z
*181 col\[5\]\.zbuf_bot_iw_I\[9\]\.z
*182 col\[0\]\.zbuf_top_iw_I\[0\]\.z
*183 col\[5\]\.zbuf_bot_iw_I\[10\]\.z
*184 col\[5\]\.zbuf_bot_iw_I\[11\]\.z
*185 col\[5\]\.zbuf_bot_iw_I\[12\]\.z
*186 col\[5\]\.zbuf_bot_iw_I\[13\]\.z
*187 col\[5\]\.zbuf_bot_iw_I\[14\]\.z
*188 col\[5\]\.zbuf_bot_iw_I\[15\]\.z
*189 col\[5\]\.zbuf_bot_iw_I\[16\]\.z
*190 col\[5\]\.zbuf_bot_iw_I\[17\]\.z
*191 col\[5\]\.zbuf_top_iw_I\[0\]\.z
*192 col\[5\]\.zbuf_top_iw_I\[1\]\.z
*193 col\[0\]\.zbuf_top_iw_I\[1\]\.z
*194 col\[0\]\.zbuf_bot_iw_I\[1\]\.z
*195 col\[5\]\.zbuf_top_iw_I\[2\]\.z
*196 col\[5\]\.zbuf_top_iw_I\[3\]\.z
*197 col\[5\]\.zbuf_top_iw_I\[4\]\.z
*198 col\[5\]\.zbuf_top_iw_I\[5\]\.z
*199 col\[5\]\.zbuf_top_iw_I\[6\]\.z
*200 col\[5\]\.zbuf_top_iw_I\[7\]\.z
*201 col\[5\]\.zbuf_top_iw_I\[8\]\.z
*202 col\[5\]\.zbuf_top_iw_I\[9\]\.z
*203 col\[5\]\.zbuf_top_iw_I\[10\]\.z
*204 col\[5\]\.zbuf_top_iw_I\[11\]\.z
*205 col\[0\]\.zbuf_top_iw_I\[2\]\.z
*206 col\[5\]\.zbuf_top_iw_I\[12\]\.z
*207 col\[5\]\.zbuf_top_iw_I\[13\]\.z
*208 col\[5\]\.zbuf_top_iw_I\[14\]\.z
*209 col\[5\]\.zbuf_top_iw_I\[15\]\.z
*210 col\[5\]\.zbuf_top_iw_I\[16\]\.z
*211 col\[5\]\.zbuf_top_iw_I\[17\]\.z
*212 col\[6\]\.zbuf_bot_iw_I\[0\]\.z
*213 col\[6\]\.zbuf_bot_iw_I\[1\]\.z
*214 col\[6\]\.zbuf_bot_iw_I\[2\]\.z
*215 col\[6\]\.zbuf_bot_iw_I\[3\]\.z
*216 col\[0\]\.zbuf_top_iw_I\[3\]\.z
*217 col\[6\]\.zbuf_bot_iw_I\[4\]\.z
*218 col\[6\]\.zbuf_bot_iw_I\[5\]\.z
*219 col\[6\]\.zbuf_bot_iw_I\[6\]\.z
*220 col\[6\]\.zbuf_bot_iw_I\[7\]\.z
*221 col\[6\]\.zbuf_bot_iw_I\[8\]\.z
*222 col\[6\]\.zbuf_bot_iw_I\[9\]\.z
*223 col\[6\]\.zbuf_bot_iw_I\[10\]\.z
*224 col\[6\]\.zbuf_bot_iw_I\[11\]\.z
*225 col\[6\]\.zbuf_bot_iw_I\[12\]\.z
*226 col\[6\]\.zbuf_bot_iw_I\[13\]\.z
*227 col\[0\]\.zbuf_top_iw_I\[4\]\.z
*228 col\[6\]\.zbuf_bot_iw_I\[14\]\.z
*229 col\[6\]\.zbuf_bot_iw_I\[15\]\.z
*230 col\[6\]\.zbuf_bot_iw_I\[16\]\.z
*231 col\[6\]\.zbuf_bot_iw_I\[17\]\.z
*232 col\[6\]\.zbuf_top_iw_I\[0\]\.z
*233 col\[6\]\.zbuf_top_iw_I\[1\]\.z
*234 col\[6\]\.zbuf_top_iw_I\[2\]\.z
*235 col\[6\]\.zbuf_top_iw_I\[3\]\.z
*236 col\[6\]\.zbuf_top_iw_I\[4\]\.z
*237 col\[6\]\.zbuf_top_iw_I\[5\]\.z
*238 col\[0\]\.zbuf_top_iw_I\[5\]\.z
*239 col\[6\]\.zbuf_top_iw_I\[6\]\.z
*240 col\[6\]\.zbuf_top_iw_I\[7\]\.z
*241 col\[6\]\.zbuf_top_iw_I\[8\]\.z
*242 col\[6\]\.zbuf_top_iw_I\[9\]\.z
*243 col\[6\]\.zbuf_top_iw_I\[10\]\.z
*244 col\[6\]\.zbuf_top_iw_I\[11\]\.z
*245 col\[6\]\.zbuf_top_iw_I\[12\]\.z
*246 col\[6\]\.zbuf_top_iw_I\[13\]\.z
*247 col\[6\]\.zbuf_top_iw_I\[14\]\.z
*248 col\[6\]\.zbuf_top_iw_I\[15\]\.z
*249 col\[0\]\.zbuf_top_iw_I\[6\]\.z
*250 col\[6\]\.zbuf_top_iw_I\[16\]\.z
*251 col\[6\]\.zbuf_top_iw_I\[17\]\.z
*252 col\[7\]\.zbuf_bot_iw_I\[0\]\.z
*253 col\[7\]\.zbuf_bot_iw_I\[1\]\.z
*254 col\[7\]\.zbuf_bot_iw_I\[2\]\.z
*255 col\[7\]\.zbuf_bot_iw_I\[3\]\.z
*256 col\[7\]\.zbuf_bot_iw_I\[4\]\.z
*257 col\[7\]\.zbuf_bot_iw_I\[5\]\.z
*258 col\[7\]\.zbuf_bot_iw_I\[6\]\.z
*259 col\[7\]\.zbuf_bot_iw_I\[7\]\.z
*260 col\[0\]\.zbuf_top_iw_I\[7\]\.z
*261 col\[7\]\.zbuf_bot_iw_I\[8\]\.z
*262 col\[7\]\.zbuf_bot_iw_I\[9\]\.z
*263 col\[7\]\.zbuf_bot_iw_I\[10\]\.z
*264 col\[7\]\.zbuf_bot_iw_I\[11\]\.z
*265 col\[7\]\.zbuf_bot_iw_I\[12\]\.z
*266 col\[7\]\.zbuf_bot_iw_I\[13\]\.z
*267 col\[7\]\.zbuf_bot_iw_I\[14\]\.z
*268 col\[7\]\.zbuf_bot_iw_I\[15\]\.z
*269 col\[7\]\.zbuf_bot_iw_I\[16\]\.z
*270 col\[7\]\.zbuf_bot_iw_I\[17\]\.z
*271 col\[0\]\.zbuf_top_iw_I\[8\]\.z
*272 col\[7\]\.zbuf_top_iw_I\[0\]\.z
*273 col\[7\]\.zbuf_top_iw_I\[1\]\.z
*274 col\[7\]\.zbuf_top_iw_I\[2\]\.z
*275 col\[7\]\.zbuf_top_iw_I\[3\]\.z
*276 col\[7\]\.zbuf_top_iw_I\[4\]\.z
*277 col\[7\]\.zbuf_top_iw_I\[5\]\.z
*278 col\[7\]\.zbuf_top_iw_I\[6\]\.z
*279 col\[7\]\.zbuf_top_iw_I\[7\]\.z
*280 col\[7\]\.zbuf_top_iw_I\[8\]\.z
*281 col\[7\]\.zbuf_top_iw_I\[9\]\.z
*282 col\[0\]\.zbuf_top_iw_I\[9\]\.z
*283 col\[7\]\.zbuf_top_iw_I\[10\]\.z
*284 col\[7\]\.zbuf_top_iw_I\[11\]\.z
*285 col\[7\]\.zbuf_top_iw_I\[12\]\.z
*286 col\[7\]\.zbuf_top_iw_I\[13\]\.z
*287 col\[7\]\.zbuf_top_iw_I\[14\]\.z
*288 col\[7\]\.zbuf_top_iw_I\[15\]\.z
*289 col\[7\]\.zbuf_top_iw_I\[16\]\.z
*290 col\[7\]\.zbuf_top_iw_I\[17\]\.z
*291 col\[0\]\.zbuf_top_iw_I\[10\]\.z
*292 col\[0\]\.zbuf_top_iw_I\[11\]\.z
*293 col\[0\]\.zbuf_bot_iw_I\[2\]\.z
*294 col\[0\]\.zbuf_top_iw_I\[12\]\.z
*295 col\[0\]\.zbuf_top_iw_I\[13\]\.z
*296 col\[0\]\.zbuf_top_iw_I\[14\]\.z
*297 col\[0\]\.zbuf_top_iw_I\[15\]\.z
*298 col\[0\]\.zbuf_top_iw_I\[16\]\.z
*299 col\[0\]\.zbuf_top_iw_I\[17\]\.z
*300 col\[1\]\.zbuf_bot_iw_I\[0\]\.z
*301 col\[1\]\.zbuf_bot_iw_I\[1\]\.z
*302 col\[1\]\.zbuf_bot_iw_I\[2\]\.z
*303 col\[1\]\.zbuf_bot_iw_I\[3\]\.z
*304 col\[0\]\.zbuf_bot_iw_I\[3\]\.z
*305 col\[1\]\.zbuf_bot_iw_I\[4\]\.z
*306 col\[1\]\.zbuf_bot_iw_I\[5\]\.z
*307 col\[1\]\.zbuf_bot_iw_I\[6\]\.z
*308 col\[1\]\.zbuf_bot_iw_I\[7\]\.z
*309 col\[1\]\.zbuf_bot_iw_I\[8\]\.z
*310 col\[1\]\.zbuf_bot_iw_I\[9\]\.z
*311 col\[1\]\.zbuf_bot_iw_I\[10\]\.z
*312 col\[1\]\.zbuf_bot_iw_I\[11\]\.z
*313 col\[1\]\.zbuf_bot_iw_I\[12\]\.z
*314 col\[1\]\.zbuf_bot_iw_I\[13\]\.z
*315 col\[0\]\.zbuf_bot_iw_I\[4\]\.z
*316 col\[1\]\.zbuf_bot_iw_I\[14\]\.z
*317 col\[1\]\.zbuf_bot_iw_I\[15\]\.z
*318 col\[1\]\.zbuf_bot_iw_I\[16\]\.z
*319 col\[1\]\.zbuf_bot_iw_I\[17\]\.z
*320 col\[1\]\.zbuf_top_iw_I\[0\]\.z
*321 col\[1\]\.zbuf_top_iw_I\[1\]\.z
*322 col\[1\]\.zbuf_top_iw_I\[2\]\.z
*323 col\[1\]\.zbuf_top_iw_I\[3\]\.z
*324 col\[1\]\.zbuf_top_iw_I\[4\]\.z
*325 col\[1\]\.zbuf_top_iw_I\[5\]\.z
*326 col\[0\]\.zbuf_bot_iw_I\[5\]\.z
*327 col\[1\]\.zbuf_top_iw_I\[6\]\.z
*328 col\[1\]\.zbuf_top_iw_I\[7\]\.z
*329 col\[1\]\.zbuf_top_iw_I\[8\]\.z
*330 col\[1\]\.zbuf_top_iw_I\[9\]\.z
*331 col\[1\]\.zbuf_top_iw_I\[10\]\.z
*332 col\[1\]\.zbuf_top_iw_I\[11\]\.z
*333 col\[1\]\.zbuf_top_iw_I\[12\]\.z
*334 col\[1\]\.zbuf_top_iw_I\[13\]\.z
*335 col\[1\]\.zbuf_top_iw_I\[14\]\.z
*336 col\[1\]\.zbuf_top_iw_I\[15\]\.z
*337 col\[0\]\.zbuf_bot_iw_I\[6\]\.z
*338 col\[1\]\.zbuf_top_iw_I\[16\]\.z
*339 col\[1\]\.zbuf_top_iw_I\[17\]\.z
*340 col\[2\]\.zbuf_bot_iw_I\[0\]\.z
*341 col\[2\]\.zbuf_bot_iw_I\[1\]\.z
*342 col\[2\]\.zbuf_bot_iw_I\[2\]\.z
*343 col\[2\]\.zbuf_bot_iw_I\[3\]\.z
*344 col\[2\]\.zbuf_bot_iw_I\[4\]\.z
*345 col\[2\]\.zbuf_bot_iw_I\[5\]\.z
*346 col\[2\]\.zbuf_bot_iw_I\[6\]\.z
*347 col\[2\]\.zbuf_bot_iw_I\[7\]\.z
*348 col\[0\]\.zbuf_bot_iw_I\[7\]\.z
*349 col\[2\]\.zbuf_bot_iw_I\[8\]\.z
*350 col\[2\]\.zbuf_bot_iw_I\[9\]\.z
*351 col\[2\]\.zbuf_bot_iw_I\[10\]\.z
*352 col\[2\]\.zbuf_bot_iw_I\[11\]\.z
*353 col\[2\]\.zbuf_bot_iw_I\[12\]\.z
*354 col\[2\]\.zbuf_bot_iw_I\[13\]\.z
*355 col\[2\]\.zbuf_bot_iw_I\[14\]\.z
*356 col\[2\]\.zbuf_bot_iw_I\[15\]\.z
*357 col\[2\]\.zbuf_bot_iw_I\[16\]\.z
*358 col\[2\]\.zbuf_bot_iw_I\[17\]\.z
*359 col\[0\]\.zbuf_bot_iw_I\[8\]\.z
*360 col\[2\]\.zbuf_top_iw_I\[0\]\.z
*361 col\[2\]\.zbuf_top_iw_I\[1\]\.z
*362 col\[2\]\.zbuf_top_iw_I\[2\]\.z
*363 col\[2\]\.zbuf_top_iw_I\[3\]\.z
*364 col\[2\]\.zbuf_top_iw_I\[4\]\.z
*365 col\[2\]\.zbuf_top_iw_I\[5\]\.z
*366 col\[2\]\.zbuf_top_iw_I\[6\]\.z
*367 col\[2\]\.zbuf_top_iw_I\[7\]\.z
*368 col\[2\]\.zbuf_top_iw_I\[8\]\.z
*369 col\[2\]\.zbuf_top_iw_I\[9\]\.z
*370 col\[0\]\.zbuf_bot_iw_I\[9\]\.z
*371 col\[0\]\.tie_bot_I\.lo
*372 col\[5\]\.tie_bot_I\.lo
*373 col\[5\]\.tie_top_I\.lo
*374 col\[6\]\.tie_bot_I\.lo
*375 col\[6\]\.tie_top_I\.lo
*376 col\[7\]\.tie_bot_I\.lo
*377 col\[7\]\.tie_top_I\.lo
*378 col\[0\]\.tie_top_I\.lo
*379 col\[1\]\.tie_bot_I\.lo
*380 col\[1\]\.tie_top_I\.lo
*381 col\[2\]\.tie_bot_I\.lo
*382 col\[2\]\.tie_top_I\.lo
*383 col\[3\]\.tie_bot_I\.lo
*384 col\[3\]\.tie_top_I\.lo
*385 col\[4\]\.tie_bot_I\.lo
*386 col\[4\]\.tie_top_I\.lo
*387 um_ow[0]
*388 um_ow[100]
*389 um_ow[101]
*390 um_ow[102]
*391 um_ow[103]
*392 um_ow[104]
*393 um_ow[105]
*394 um_ow[106]
*395 um_ow[107]
*396 um_ow[108]
*397 um_ow[109]
*398 um_ow[10]
*399 um_ow[110]
*400 um_ow[111]
*401 um_ow[112]
*402 um_ow[113]
*403 um_ow[114]
*404 um_ow[115]
*405 um_ow[116]
*406 um_ow[117]
*407 um_ow[118]
*408 um_ow[119]
*409 um_ow[11]
*410 um_ow[120]
*411 um_ow[121]
*412 um_ow[122]
*413 um_ow[123]
*414 um_ow[124]
*415 um_ow[125]
*416 um_ow[126]
*417 um_ow[127]
*418 um_ow[128]
*419 um_ow[129]
*420 um_ow[12]
*421 um_ow[130]
*422 um_ow[131]
*423 um_ow[132]
*424 um_ow[133]
*425 um_ow[134]
*426 um_ow[135]
*427 um_ow[136]
*428 um_ow[137]
*429 um_ow[138]
*430 um_ow[139]
*431 um_ow[13]
*432 um_ow[140]
*433 um_ow[141]
*434 um_ow[142]
*435 um_ow[143]
*436 um_ow[144]
*437 um_ow[145]
*438 um_ow[146]
*439 um_ow[147]
*440 um_ow[148]
*441 um_ow[149]
*442 um_ow[14]
*443 um_ow[150]
*444 um_ow[151]
*445 um_ow[152]
*446 um_ow[153]
*447 um_ow[154]
*448 um_ow[155]
*449 um_ow[156]
*450 um_ow[157]
*451 um_ow[158]
*452 um_ow[159]
*453 um_ow[15]
*454 um_ow[160]
*455 um_ow[161]
*456 um_ow[162]
*457 um_ow[163]
*458 um_ow[164]
*459 um_ow[165]
*460 um_ow[166]
*461 um_ow[167]
*462 um_ow[168]
*463 um_ow[169]
*464 um_ow[16]
*465 um_ow[170]
*466 um_ow[171]
*467 um_ow[172]
*468 um_ow[173]
*469 um_ow[174]
*470 um_ow[175]
*471 um_ow[176]
*472 um_ow[177]
*473 um_ow[178]
*474 um_ow[179]
*475 um_ow[17]
*476 um_ow[180]
*477 um_ow[181]
*478 um_ow[182]
*479 um_ow[183]
*480 um_ow[184]
*481 um_ow[185]
*482 um_ow[186]
*483 um_ow[187]
*484 um_ow[188]
*485 um_ow[189]
*486 um_ow[18]
*487 um_ow[190]
*488 um_ow[191]
*489 um_ow[192]
*490 um_ow[193]
*491 um_ow[194]
*492 um_ow[195]
*493 um_ow[196]
*494 um_ow[197]
*495 um_ow[198]
*496 um_ow[199]
*497 um_ow[19]
*498 um_ow[1]
*499 um_ow[200]
*500 um_ow[201]
*501 um_ow[202]
*502 um_ow[203]
*503 um_ow[204]
*504 um_ow[205]
*505 um_ow[206]
*506 um_ow[207]
*507 um_ow[208]
*508 um_ow[209]
*509 um_ow[20]
*510 um_ow[210]
*511 um_ow[211]
*512 um_ow[212]
*513 um_ow[213]
*514 um_ow[214]
*515 um_ow[215]
*516 um_ow[216]
*517 um_ow[217]
*518 um_ow[218]
*519 um_ow[219]
*520 um_ow[21]
*521 um_ow[220]
*522 um_ow[221]
*523 um_ow[222]
*524 um_ow[223]
*525 um_ow[224]
*526 um_ow[225]
*527 um_ow[226]
*528 um_ow[227]
*529 um_ow[228]
*530 um_ow[229]
*531 um_ow[22]
*532 um_ow[230]
*533 um_ow[231]
*534 um_ow[232]
*535 um_ow[233]
*536 um_ow[234]
*537 um_ow[235]
*538 um_ow[236]
*539 um_ow[237]
*540 um_ow[238]
*541 um_ow[239]
*542 um_ow[23]
*543 um_ow[240]
*544 um_ow[241]
*545 um_ow[242]
*546 um_ow[243]
*547 um_ow[244]
*548 um_ow[245]
*549 um_ow[246]
*550 um_ow[247]
*551 um_ow[248]
*552 um_ow[249]
*553 um_ow[24]
*554 um_ow[250]
*555 um_ow[251]
*556 um_ow[252]
*557 um_ow[253]
*558 um_ow[254]
*559 um_ow[255]
*560 um_ow[256]
*561 um_ow[257]
*562 um_ow[258]
*563 um_ow[259]
*564 um_ow[25]
*565 um_ow[260]
*566 um_ow[261]
*567 um_ow[262]
*568 um_ow[263]
*569 um_ow[264]
*570 um_ow[265]
*571 um_ow[266]
*572 um_ow[267]
*573 um_ow[268]
*574 um_ow[269]
*575 um_ow[26]
*576 um_ow[270]
*577 um_ow[271]
*578 um_ow[272]
*579 um_ow[273]
*580 um_ow[274]
*581 um_ow[275]
*582 um_ow[276]
*583 um_ow[277]
*584 um_ow[278]
*585 um_ow[279]
*586 um_ow[27]
*587 um_ow[280]
*588 um_ow[281]
*589 um_ow[282]
*590 um_ow[283]
*591 um_ow[284]
*592 um_ow[285]
*593 um_ow[286]
*594 um_ow[287]
*595 um_ow[288]
*596 um_ow[289]
*597 um_ow[28]
*598 um_ow[290]
*599 um_ow[291]
*600 um_ow[292]
*601 um_ow[293]
*602 um_ow[294]
*603 um_ow[295]
*604 um_ow[296]
*605 um_ow[297]
*606 um_ow[298]
*607 um_ow[299]
*608 um_ow[29]
*609 um_ow[2]
*610 um_ow[300]
*611 um_ow[301]
*612 um_ow[302]
*613 um_ow[303]
*614 um_ow[304]
*615 um_ow[305]
*616 um_ow[306]
*617 um_ow[307]
*618 um_ow[308]
*619 um_ow[309]
*620 um_ow[30]
*621 um_ow[310]
*622 um_ow[311]
*623 um_ow[312]
*624 um_ow[313]
*625 um_ow[314]
*626 um_ow[315]
*627 um_ow[316]
*628 um_ow[317]
*629 um_ow[318]
*630 um_ow[319]
*631 um_ow[31]
*632 um_ow[320]
*633 um_ow[321]
*634 um_ow[322]
*635 um_ow[323]
*636 um_ow[324]
*637 um_ow[325]
*638 um_ow[326]
*639 um_ow[327]
*640 um_ow[328]
*641 um_ow[329]
*642 um_ow[32]
*643 um_ow[330]
*644 um_ow[331]
*645 um_ow[332]
*646 um_ow[333]
*647 um_ow[334]
*648 um_ow[335]
*649 um_ow[336]
*650 um_ow[337]
*651 um_ow[338]
*652 um_ow[339]
*653 um_ow[33]
*654 um_ow[340]
*655 um_ow[341]
*656 um_ow[342]
*657 um_ow[343]
*658 um_ow[344]
*659 um_ow[345]
*660 um_ow[346]
*661 um_ow[347]
*662 um_ow[348]
*663 um_ow[349]
*664 um_ow[34]
*665 um_ow[350]
*666 um_ow[351]
*667 um_ow[352]
*668 um_ow[353]
*669 um_ow[354]
*670 um_ow[355]
*671 um_ow[356]
*672 um_ow[357]
*673 um_ow[358]
*674 um_ow[359]
*675 um_ow[35]
*676 um_ow[360]
*677 um_ow[361]
*678 um_ow[362]
*679 um_ow[363]
*680 um_ow[364]
*681 um_ow[365]
*682 um_ow[366]
*683 um_ow[367]
*684 um_ow[368]
*685 um_ow[369]
*686 um_ow[36]
*687 um_ow[370]
*688 um_ow[371]
*689 um_ow[372]
*690 um_ow[373]
*691 um_ow[374]
*692 um_ow[375]
*693 um_ow[376]
*694 um_ow[377]
*695 um_ow[378]
*696 um_ow[379]
*697 um_ow[37]
*698 um_ow[380]
*699 um_ow[381]
*700 um_ow[382]
*701 um_ow[383]
*702 um_ow[38]
*703 um_ow[39]
*704 um_ow[3]
*705 um_ow[40]
*706 um_ow[41]
*707 um_ow[42]
*708 um_ow[43]
*709 um_ow[44]
*710 um_ow[45]
*711 um_ow[46]
*712 um_ow[47]
*713 um_ow[48]
*714 um_ow[49]
*715 um_ow[4]
*716 um_ow[50]
*717 um_ow[51]
*718 um_ow[52]
*719 um_ow[53]
*720 um_ow[54]
*721 um_ow[55]
*722 um_ow[56]
*723 um_ow[57]
*724 um_ow[58]
*725 um_ow[59]
*726 um_ow[5]
*727 um_ow[60]
*728 um_ow[61]
*729 um_ow[62]
*730 um_ow[63]
*731 um_ow[64]
*732 um_ow[65]
*733 um_ow[66]
*734 um_ow[67]
*735 um_ow[68]
*736 um_ow[69]
*737 um_ow[6]
*738 um_ow[70]
*739 um_ow[71]
*740 um_ow[72]
*741 um_ow[73]
*742 um_ow[74]
*743 um_ow[75]
*744 um_ow[76]
*745 um_ow[77]
*746 um_ow[78]
*747 um_ow[79]
*748 um_ow[7]
*749 um_ow[80]
*750 um_ow[81]
*751 um_ow[82]
*752 um_ow[83]
*753 um_ow[84]
*754 um_ow[85]
*755 um_ow[86]
*756 um_ow[87]
*757 um_ow[88]
*758 um_ow[89]
*759 um_ow[8]
*760 um_ow[90]
*761 um_ow[91]
*762 um_ow[92]
*763 um_ow[93]
*764 um_ow[94]
*765 um_ow[95]
*766 um_ow[96]
*767 um_ow[97]
*768 um_ow[98]
*769 um_ow[99]
*770 um_ow[9]
*771 _00_
*772 _01_
*773 _02_
*774 _03_
*775 _04_
*776 _05_
*777 _06_
*778 _07_
*779 _08_
*780 _09_
*781 _10_
*782 _11_
*783 _12_
*784 _13_
*785 _14_
*786 _15_
*787 _16_
*788 _17_
*789 col\[0\]\.genblk1\.mux4_I\[0\]\.x
*790 col\[0\]\.genblk1\.mux4_I\[10\]\.x
*791 col\[0\]\.genblk1\.mux4_I\[11\]\.x
*792 col\[0\]\.genblk1\.mux4_I\[12\]\.x
*793 col\[0\]\.genblk1\.mux4_I\[13\]\.x
*794 col\[0\]\.genblk1\.mux4_I\[14\]\.x
*795 col\[0\]\.genblk1\.mux4_I\[15\]\.x
*796 col\[0\]\.genblk1\.mux4_I\[16\]\.x
*797 col\[0\]\.genblk1\.mux4_I\[17\]\.x
*798 col\[0\]\.genblk1\.mux4_I\[18\]\.x
*799 col\[0\]\.genblk1\.mux4_I\[19\]\.x
*800 col\[0\]\.genblk1\.mux4_I\[1\]\.x
*801 col\[0\]\.genblk1\.mux4_I\[20\]\.x
*802 col\[0\]\.genblk1\.mux4_I\[21\]\.x
*803 col\[0\]\.genblk1\.mux4_I\[22\]\.x
*804 col\[0\]\.genblk1\.mux4_I\[23\]\.x
*805 col\[0\]\.genblk1\.mux4_I\[2\]\.x
*806 col\[0\]\.genblk1\.mux4_I\[3\]\.x
*807 col\[0\]\.genblk1\.mux4_I\[4\]\.x
*808 col\[0\]\.genblk1\.mux4_I\[5\]\.x
*809 col\[0\]\.genblk1\.mux4_I\[6\]\.x
*810 col\[0\]\.genblk1\.mux4_I\[7\]\.x
*811 col\[0\]\.genblk1\.mux4_I\[8\]\.x
*812 col\[0\]\.genblk1\.mux4_I\[9\]\.x
*813 col\[0\]\.genblk1\.tbuf_row_ena_I\.t
*814 col\[0\]\.genblk1\.tbuf_row_ena_I\.tx
*815 col\[0\]\.genblk1\.tbuf_spine_ow_I\[0\]\.z
*816 col\[0\]\.genblk1\.tbuf_spine_ow_I\[10\]\.z
*817 col\[0\]\.genblk1\.tbuf_spine_ow_I\[11\]\.z
*818 col\[0\]\.genblk1\.tbuf_spine_ow_I\[12\]\.z
*819 col\[0\]\.genblk1\.tbuf_spine_ow_I\[13\]\.z
*820 col\[0\]\.genblk1\.tbuf_spine_ow_I\[14\]\.z
*821 col\[0\]\.genblk1\.tbuf_spine_ow_I\[15\]\.z
*822 col\[0\]\.genblk1\.tbuf_spine_ow_I\[16\]\.z
*823 col\[0\]\.genblk1\.tbuf_spine_ow_I\[17\]\.z
*824 col\[0\]\.genblk1\.tbuf_spine_ow_I\[18\]\.z
*825 col\[0\]\.genblk1\.tbuf_spine_ow_I\[19\]\.z
*826 col\[0\]\.genblk1\.tbuf_spine_ow_I\[1\]\.z
*827 col\[0\]\.genblk1\.tbuf_spine_ow_I\[20\]\.z
*828 col\[0\]\.genblk1\.tbuf_spine_ow_I\[21\]\.z
*829 col\[0\]\.genblk1\.tbuf_spine_ow_I\[22\]\.z
*830 col\[0\]\.genblk1\.tbuf_spine_ow_I\[23\]\.z
*831 col\[0\]\.genblk1\.tbuf_spine_ow_I\[2\]\.z
*832 col\[0\]\.genblk1\.tbuf_spine_ow_I\[3\]\.z
*833 col\[0\]\.genblk1\.tbuf_spine_ow_I\[4\]\.z
*834 col\[0\]\.genblk1\.tbuf_spine_ow_I\[5\]\.z
*835 col\[0\]\.genblk1\.tbuf_spine_ow_I\[6\]\.z
*836 col\[0\]\.genblk1\.tbuf_spine_ow_I\[7\]\.z
*837 col\[0\]\.genblk1\.tbuf_spine_ow_I\[8\]\.z
*838 col\[0\]\.genblk1\.tbuf_spine_ow_I\[9\]\.z
*839 col\[0\]\.tie_bot_I\.hi
*840 col\[0\]\.tie_top_I\.hi
*841 col\[0\]\.zbuf_bot_ena_I\.e
*842 col\[0\]\.zbuf_bot_iw_I\[0\]\.a
*843 col\[0\]\.zbuf_bot_iw_I\[10\]\.a
*844 col\[0\]\.zbuf_bot_iw_I\[11\]\.a
*845 col\[0\]\.zbuf_bot_iw_I\[12\]\.a
*846 col\[0\]\.zbuf_bot_iw_I\[13\]\.a
*847 col\[0\]\.zbuf_bot_iw_I\[14\]\.a
*848 col\[0\]\.zbuf_bot_iw_I\[15\]\.a
*849 col\[0\]\.zbuf_bot_iw_I\[16\]\.a
*850 col\[0\]\.zbuf_bot_iw_I\[17\]\.a
*851 col\[0\]\.zbuf_bot_iw_I\[1\]\.a
*852 col\[0\]\.zbuf_bot_iw_I\[2\]\.a
*853 col\[0\]\.zbuf_bot_iw_I\[3\]\.a
*854 col\[0\]\.zbuf_bot_iw_I\[4\]\.a
*855 col\[0\]\.zbuf_bot_iw_I\[5\]\.a
*856 col\[0\]\.zbuf_bot_iw_I\[6\]\.a
*857 col\[0\]\.zbuf_bot_iw_I\[7\]\.a
*858 col\[0\]\.zbuf_bot_iw_I\[8\]\.a
*859 col\[0\]\.zbuf_bot_iw_I\[9\]\.a
*860 col\[0\]\.zbuf_top_ena_I\.e
*861 col\[1\]\.tie_bot_I\.hi
*862 col\[1\]\.tie_top_I\.hi
*863 col\[1\]\.zbuf_bot_ena_I\.e
*864 col\[1\]\.zbuf_top_ena_I\.e
*865 col\[2\]\.genblk1\.mux4_I\[0\]\.x
*866 col\[2\]\.genblk1\.mux4_I\[10\]\.x
*867 col\[2\]\.genblk1\.mux4_I\[11\]\.x
*868 col\[2\]\.genblk1\.mux4_I\[12\]\.x
*869 col\[2\]\.genblk1\.mux4_I\[13\]\.x
*870 col\[2\]\.genblk1\.mux4_I\[14\]\.x
*871 col\[2\]\.genblk1\.mux4_I\[15\]\.x
*872 col\[2\]\.genblk1\.mux4_I\[16\]\.x
*873 col\[2\]\.genblk1\.mux4_I\[17\]\.x
*874 col\[2\]\.genblk1\.mux4_I\[18\]\.x
*875 col\[2\]\.genblk1\.mux4_I\[19\]\.x
*876 col\[2\]\.genblk1\.mux4_I\[1\]\.x
*877 col\[2\]\.genblk1\.mux4_I\[20\]\.x
*878 col\[2\]\.genblk1\.mux4_I\[21\]\.x
*879 col\[2\]\.genblk1\.mux4_I\[22\]\.x
*880 col\[2\]\.genblk1\.mux4_I\[23\]\.x
*881 col\[2\]\.genblk1\.mux4_I\[2\]\.x
*882 col\[2\]\.genblk1\.mux4_I\[3\]\.x
*883 col\[2\]\.genblk1\.mux4_I\[4\]\.x
*884 col\[2\]\.genblk1\.mux4_I\[5\]\.x
*885 col\[2\]\.genblk1\.mux4_I\[6\]\.x
*886 col\[2\]\.genblk1\.mux4_I\[7\]\.x
*887 col\[2\]\.genblk1\.mux4_I\[8\]\.x
*888 col\[2\]\.genblk1\.mux4_I\[9\]\.x
*889 col\[2\]\.genblk1\.tbuf_row_ena_I\.t
*890 col\[2\]\.genblk1\.tbuf_row_ena_I\.tx
*891 col\[2\]\.tie_bot_I\.hi
*892 col\[2\]\.tie_top_I\.hi
*893 col\[2\]\.zbuf_bot_ena_I\.e
*894 col\[2\]\.zbuf_top_ena_I\.e
*895 col\[3\]\.tie_bot_I\.hi
*896 col\[3\]\.tie_top_I\.hi
*897 col\[3\]\.zbuf_bot_ena_I\.e
*898 col\[3\]\.zbuf_top_ena_I\.e
*899 col\[4\]\.genblk1\.mux4_I\[0\]\.x
*900 col\[4\]\.genblk1\.mux4_I\[10\]\.x
*901 col\[4\]\.genblk1\.mux4_I\[11\]\.x
*902 col\[4\]\.genblk1\.mux4_I\[12\]\.x
*903 col\[4\]\.genblk1\.mux4_I\[13\]\.x
*904 col\[4\]\.genblk1\.mux4_I\[14\]\.x
*905 col\[4\]\.genblk1\.mux4_I\[15\]\.x
*906 col\[4\]\.genblk1\.mux4_I\[16\]\.x
*907 col\[4\]\.genblk1\.mux4_I\[17\]\.x
*908 col\[4\]\.genblk1\.mux4_I\[18\]\.x
*909 col\[4\]\.genblk1\.mux4_I\[19\]\.x
*910 col\[4\]\.genblk1\.mux4_I\[1\]\.x
*911 col\[4\]\.genblk1\.mux4_I\[20\]\.x
*912 col\[4\]\.genblk1\.mux4_I\[21\]\.x
*913 col\[4\]\.genblk1\.mux4_I\[22\]\.x
*914 col\[4\]\.genblk1\.mux4_I\[23\]\.x
*915 col\[4\]\.genblk1\.mux4_I\[2\]\.x
*916 col\[4\]\.genblk1\.mux4_I\[3\]\.x
*917 col\[4\]\.genblk1\.mux4_I\[4\]\.x
*918 col\[4\]\.genblk1\.mux4_I\[5\]\.x
*919 col\[4\]\.genblk1\.mux4_I\[6\]\.x
*920 col\[4\]\.genblk1\.mux4_I\[7\]\.x
*921 col\[4\]\.genblk1\.mux4_I\[8\]\.x
*922 col\[4\]\.genblk1\.mux4_I\[9\]\.x
*923 col\[4\]\.genblk1\.tbuf_row_ena_I\.t
*924 col\[4\]\.genblk1\.tbuf_row_ena_I\.tx
*925 col\[4\]\.tie_bot_I\.hi
*926 col\[4\]\.tie_top_I\.hi
*927 col\[4\]\.zbuf_bot_ena_I\.e
*928 col\[4\]\.zbuf_top_ena_I\.e
*929 col\[5\]\.tie_bot_I\.hi
*930 col\[5\]\.tie_top_I\.hi
*931 col\[5\]\.zbuf_bot_ena_I\.e
*932 col\[5\]\.zbuf_top_ena_I\.e
*933 col\[6\]\.genblk1\.mux4_I\[0\]\.x
*934 col\[6\]\.genblk1\.mux4_I\[10\]\.x
*935 col\[6\]\.genblk1\.mux4_I\[11\]\.x
*936 col\[6\]\.genblk1\.mux4_I\[12\]\.x
*937 col\[6\]\.genblk1\.mux4_I\[13\]\.x
*938 col\[6\]\.genblk1\.mux4_I\[14\]\.x
*939 col\[6\]\.genblk1\.mux4_I\[15\]\.x
*940 col\[6\]\.genblk1\.mux4_I\[16\]\.x
*941 col\[6\]\.genblk1\.mux4_I\[17\]\.x
*942 col\[6\]\.genblk1\.mux4_I\[18\]\.x
*943 col\[6\]\.genblk1\.mux4_I\[19\]\.x
*944 col\[6\]\.genblk1\.mux4_I\[1\]\.x
*945 col\[6\]\.genblk1\.mux4_I\[20\]\.x
*946 col\[6\]\.genblk1\.mux4_I\[21\]\.x
*947 col\[6\]\.genblk1\.mux4_I\[22\]\.x
*948 col\[6\]\.genblk1\.mux4_I\[23\]\.x
*949 col\[6\]\.genblk1\.mux4_I\[2\]\.x
*950 col\[6\]\.genblk1\.mux4_I\[3\]\.x
*951 col\[6\]\.genblk1\.mux4_I\[4\]\.x
*952 col\[6\]\.genblk1\.mux4_I\[5\]\.x
*953 col\[6\]\.genblk1\.mux4_I\[6\]\.x
*954 col\[6\]\.genblk1\.mux4_I\[7\]\.x
*955 col\[6\]\.genblk1\.mux4_I\[8\]\.x
*956 col\[6\]\.genblk1\.mux4_I\[9\]\.x
*957 col\[6\]\.genblk1\.tbuf_row_ena_I\.t
*958 col\[6\]\.genblk1\.tbuf_row_ena_I\.tx
*959 col\[6\]\.tie_bot_I\.hi
*960 col\[6\]\.tie_top_I\.hi
*961 col\[6\]\.zbuf_bot_ena_I\.e
*962 col\[6\]\.zbuf_top_ena_I\.e
*963 col\[7\]\.tie_bot_I\.hi
*964 col\[7\]\.tie_top_I\.hi
*965 col\[7\]\.zbuf_bot_ena_I\.e
*966 col\[7\]\.zbuf_top_ena_I\.e
*967 one_
*968 tbuf_row_ena_I\.t
*969 tbuf_row_ena_I\.tx
*970 tie_spine_guard_I\[0\]\.hi
*971 tie_spine_guard_I\[1\]\.hi
*972 zbuf_bus_ena_I\.genblk1\.l
*973 zbuf_bus_ena_I\.z
*974 zbuf_bus_iw_I\[0\]\.genblk1\.l
*975 zbuf_bus_iw_I\[10\]\.genblk1\.l
*976 zbuf_bus_iw_I\[11\]\.genblk1\.l
*977 zbuf_bus_iw_I\[12\]\.genblk1\.l
*978 zbuf_bus_iw_I\[13\]\.genblk1\.l
*979 zbuf_bus_iw_I\[14\]\.genblk1\.l
*980 zbuf_bus_iw_I\[15\]\.genblk1\.l
*981 zbuf_bus_iw_I\[16\]\.genblk1\.l
*982 zbuf_bus_iw_I\[17\]\.genblk1\.l
*983 zbuf_bus_iw_I\[1\]\.genblk1\.l
*984 zbuf_bus_iw_I\[2\]\.genblk1\.l
*985 zbuf_bus_iw_I\[3\]\.genblk1\.l
*986 zbuf_bus_iw_I\[4\]\.genblk1\.l
*987 zbuf_bus_iw_I\[5\]\.genblk1\.l
*988 zbuf_bus_iw_I\[6\]\.genblk1\.l
*989 zbuf_bus_iw_I\[7\]\.genblk1\.l
*990 zbuf_bus_iw_I\[8\]\.genblk1\.l
*991 zbuf_bus_iw_I\[9\]\.genblk1\.l
*992 zbuf_bus_sel_I\[0\]\.genblk1\.l
*993 zbuf_bus_sel_I\[0\]\.z
*994 zbuf_bus_sel_I\[1\]\.genblk1\.l
*995 zbuf_bus_sel_I\[1\]\.z
*996 zbuf_bus_sel_I\[2\]\.genblk1\.l
*997 zbuf_bus_sel_I\[2\]\.z
*998 zbuf_bus_sel_I\[3\]\.genblk1\.l
*999 zbuf_bus_sel_I\[3\]\.z
*1000 zbuf_bus_sel_I\[4\]\.genblk1\.l
*1001 zbuf_bus_sel_I\[4\]\.z
*1002 ANTENNA_1
*1003 ANTENNA_10
*1004 ANTENNA_100
*1005 ANTENNA_101
*1006 ANTENNA_102
*1007 ANTENNA_103
*1008 ANTENNA_104
*1009 ANTENNA_105
*1010 ANTENNA_106
*1011 ANTENNA_107
*1012 ANTENNA_108
*1013 ANTENNA_109
*1014 ANTENNA_11
*1015 ANTENNA_110
*1016 ANTENNA_111
*1017 ANTENNA_112
*1018 ANTENNA_113
*1019 ANTENNA_114
*1020 ANTENNA_115
*1021 ANTENNA_116
*1022 ANTENNA_117
*1023 ANTENNA_118
*1024 ANTENNA_119
*1025 ANTENNA_12
*1026 ANTENNA_120
*1027 ANTENNA_121
*1028 ANTENNA_122
*1029 ANTENNA_123
*1030 ANTENNA_124
*1031 ANTENNA_125
*1032 ANTENNA_126
*1033 ANTENNA_127
*1034 ANTENNA_128
*1035 ANTENNA_129
*1036 ANTENNA_13
*1037 ANTENNA_130
*1038 ANTENNA_131
*1039 ANTENNA_132
*1040 ANTENNA_133
*1041 ANTENNA_134
*1042 ANTENNA_135
*1043 ANTENNA_136
*1044 ANTENNA_137
*1045 ANTENNA_138
*1046 ANTENNA_139
*1047 ANTENNA_14
*1048 ANTENNA_140
*1049 ANTENNA_141
*1050 ANTENNA_142
*1051 ANTENNA_143
*1052 ANTENNA_144
*1053 ANTENNA_145
*1054 ANTENNA_146
*1055 ANTENNA_147
*1056 ANTENNA_148
*1057 ANTENNA_149
*1058 ANTENNA_15
*1059 ANTENNA_150
*1060 ANTENNA_151
*1061 ANTENNA_152
*1062 ANTENNA_153
*1063 ANTENNA_154
*1064 ANTENNA_155
*1065 ANTENNA_156
*1066 ANTENNA_157
*1067 ANTENNA_158
*1068 ANTENNA_159
*1069 ANTENNA_16
*1070 ANTENNA_160
*1071 ANTENNA_161
*1072 ANTENNA_162
*1073 ANTENNA_163
*1074 ANTENNA_164
*1075 ANTENNA_165
*1076 ANTENNA_166
*1077 ANTENNA_167
*1078 ANTENNA_168
*1079 ANTENNA_169
*1080 ANTENNA_17
*1081 ANTENNA_170
*1082 ANTENNA_171
*1083 ANTENNA_172
*1084 ANTENNA_173
*1085 ANTENNA_174
*1086 ANTENNA_175
*1087 ANTENNA_176
*1088 ANTENNA_177
*1089 ANTENNA_178
*1090 ANTENNA_179
*1091 ANTENNA_18
*1092 ANTENNA_180
*1093 ANTENNA_181
*1094 ANTENNA_182
*1095 ANTENNA_183
*1096 ANTENNA_184
*1097 ANTENNA_185
*1098 ANTENNA_186
*1099 ANTENNA_187
*1100 ANTENNA_188
*1101 ANTENNA_189
*1102 ANTENNA_19
*1103 ANTENNA_190
*1104 ANTENNA_191
*1105 ANTENNA_192
*1106 ANTENNA_193
*1107 ANTENNA_194
*1108 ANTENNA_195
*1109 ANTENNA_196
*1110 ANTENNA_197
*1111 ANTENNA_198
*1112 ANTENNA_199
*1113 ANTENNA_2
*1114 ANTENNA_20
*1115 ANTENNA_200
*1116 ANTENNA_201
*1117 ANTENNA_202
*1118 ANTENNA_203
*1119 ANTENNA_204
*1120 ANTENNA_205
*1121 ANTENNA_206
*1122 ANTENNA_207
*1123 ANTENNA_208
*1124 ANTENNA_209
*1125 ANTENNA_21
*1126 ANTENNA_210
*1127 ANTENNA_211
*1128 ANTENNA_212