*SPEF "ieee 1481-1999"
*DESIGN "user_project_wrapper"
*DATE "11:11:11 Fri 11 11, 1111"
*VENDOR "OpenRCX"
*PROGRAM "Parallel Extraction"
*VERSION "1.0"
*DESIGN_FLOW "NAME_SCOPE LOCAL" "PIN_CAP NONE"
*DIVIDER /
*DELIMITER :
*BUS_DELIMITER []
*T_UNIT 1 NS
*C_UNIT 1 PF
*R_UNIT 1 OHM
*L_UNIT 1 HENRY

*NAME_MAP
*1 analog_io[0]
*2 analog_io[10]
*3 analog_io[11]
*4 analog_io[12]
*5 analog_io[13]
*6 analog_io[14]
*7 analog_io[15]
*8 analog_io[16]
*9 analog_io[17]
*10 analog_io[18]
*11 analog_io[19]
*12 analog_io[1]
*13 analog_io[20]
*14 analog_io[21]
*15 analog_io[22]
*16 analog_io[23]
*17 analog_io[24]
*18 analog_io[25]
*19 analog_io[26]
*20 analog_io[27]
*21 analog_io[28]
*22 analog_io[2]
*23 analog_io[3]
*24 analog_io[4]
*25 analog_io[5]
*26 analog_io[6]
*27 analog_io[7]
*28 analog_io[8]
*29 analog_io[9]
*30 io_in[0]
*31 io_in[10]
*32 io_in[11]
*33 io_in[12]
*34 io_in[13]
*35 io_in[14]
*36 io_in[15]
*37 io_in[16]
*38 io_in[17]
*39 io_in[18]
*40 io_in[19]
*41 io_in[1]
*42 io_in[20]
*43 io_in[21]
*44 io_in[22]
*45 io_in[23]
*46 io_in[24]
*47 io_in[25]
*48 io_in[26]
*49 io_in[27]
*50 io_in[28]
*51 io_in[29]
*52 io_in[2]
*53 io_in[30]
*54 io_in[31]
*55 io_in[32]
*56 io_in[33]
*57 io_in[34]
*58 io_in[35]
*59 io_in[36]
*60 io_in[37]
*61 io_in[3]
*62 io_in[4]
*63 io_in[5]
*64 io_in[6]
*65 io_in[7]
*66 io_in[8]
*67 io_in[9]
*68 top_I\.k_one
*69 wbs_ack_o
*70 io_oeb[24]
*71 io_oeb[25]
*72 io_oeb[26]
*73 io_oeb[27]
*74 io_oeb[28]
*75 io_oeb[29]
*76 io_oeb[30]
*77 io_oeb[31]
*78 io_out[16]
*79 io_out[17]
*80 io_out[18]
*81 io_out[19]
*82 io_out[20]
*83 io_out[21]
*84 io_out[22]
*85 io_out[23]
*86 io_out[24]
*87 io_out[25]
*88 io_out[26]
*89 io_out[27]
*90 io_out[28]
*91 io_out[29]
*92 io_out[30]
*93 io_out[31]
*94 user_clock2
*95 la_data_in[0]
*96 la_data_in[100]
*97 la_data_in[101]
*98 la_data_in[102]
*99 la_data_in[103]
*100 la_data_in[104]
*101 la_data_in[105]
*102 la_data_in[106]
*103 la_data_in[107]
*104 la_data_in[108]
*105 la_data_in[109]
*106 la_data_in[10]
*107 la_data_in[110]
*108 la_data_in[111]
*109 la_data_in[112]
*110 la_data_in[113]
*111 la_data_in[114]
*112 la_data_in[115]
*113 la_data_in[116]
*114 la_data_in[117]
*115 la_data_in[118]
*116 la_data_in[119]
*117 la_data_in[11]
*118 la_data_in[120]
*119 la_data_in[121]
*120 la_data_in[122]
*121 la_data_in[123]
*122 la_data_in[124]
*123 la_data_in[125]
*124 la_data_in[126]
*125 la_data_in[127]
*126 la_data_in[12]
*127 la_data_in[13]
*128 la_data_in[14]
*129 la_data_in[15]
*130 la_data_in[16]
*131 la_data_in[17]
*132 la_data_in[18]
*133 la_data_in[19]
*134 la_data_in[1]
*135 la_data_in[20]
*136 la_data_in[21]
*137 la_data_in[22]
*138 la_data_in[23]
*139 la_data_in[24]
*140 la_data_in[25]
*141 la_data_in[26]
*142 la_data_in[27]
*143 la_data_in[28]
*144 la_data_in[29]
*145 la_data_in[2]
*146 la_data_in[30]
*147 la_data_in[31]
*148 la_data_in[32]
*149 la_data_in[33]
*150 la_data_in[34]
*151 la_data_in[35]
*152 la_data_in[36]
*153 la_data_in[37]
*154 la_data_in[38]
*155 la_data_in[39]
*156 la_data_in[3]
*157 la_data_in[40]
*158 la_data_in[41]
*159 la_data_in[42]
*160 la_data_in[43]
*161 la_data_in[44]
*162 la_data_in[45]
*163 la_data_in[46]
*164 la_data_in[47]
*165 la_data_in[48]
*166 la_data_in[49]
*167 la_data_in[4]
*168 la_data_in[50]
*169 la_data_in[51]
*170 la_data_in[52]
*171 la_data_in[53]
*172 la_data_in[54]
*173 la_data_in[55]
*174 la_data_in[56]
*175 la_data_in[57]
*176 la_data_in[58]
*177 la_data_in[59]
*178 la_data_in[5]
*179 la_data_in[60]
*180 la_data_in[61]
*181 la_data_in[62]
*182 la_data_in[63]
*183 la_data_in[64]
*184 la_data_in[65]
*185 la_data_in[66]
*186 la_data_in[67]
*187 la_data_in[68]
*188 la_data_in[69]
*189 la_data_in[6]
*190 la_data_in[70]
*191 la_data_in[71]
*192 la_data_in[72]
*193 la_data_in[73]
*194 la_data_in[74]
*195 la_data_in[75]
*196 la_data_in[76]
*197 la_data_in[77]
*198 la_data_in[78]
*199 la_data_in[79]
*200 la_data_in[7]
*201 la_data_in[80]
*202 la_data_in[81]
*203 la_data_in[82]
*204 la_data_in[83]
*205 la_data_in[84]
*206 la_data_in[85]
*207 la_data_in[86]
*208 la_data_in[87]
*209 la_data_in[88]
*210 la_data_in[89]
*211 la_data_in[8]
*212 la_data_in[90]
*213 la_data_in[91]
*214 la_data_in[92]
*215 la_data_in[93]
*216 la_data_in[94]
*217 la_data_in[95]
*218 la_data_in[96]
*219 la_data_in[97]
*220 la_data_in[98]
*221 la_data_in[99]
*222 la_data_in[9]
*223 la_oenb[0]
*224 la_oenb[100]
*225 la_oenb[101]
*226 la_oenb[102]
*227 la_oenb[103]
*228 la_oenb[104]
*229 la_oenb[105]
*230 la_oenb[106]
*231 la_oenb[107]
*232 la_oenb[108]
*233 la_oenb[109]
*234 la_oenb[10]
*235 la_oenb[110]
*236 la_oenb[111]
*237 la_oenb[112]
*238 la_oenb[113]
*239 la_oenb[114]
*240 la_oenb[115]
*241 la_oenb[116]
*242 la_oenb[117]
*243 la_oenb[118]
*244 la_oenb[119]
*245 la_oenb[11]
*246 la_oenb[120]
*247 la_oenb[121]
*248 la_oenb[122]
*249 la_oenb[123]
*250 la_oenb[124]
*251 la_oenb[125]
*252 la_oenb[126]
*253 la_oenb[127]
*254 la_oenb[12]
*255 la_oenb[13]
*256 la_oenb[14]
*257 la_oenb[15]
*258 la_oenb[16]
*259 la_oenb[17]
*260 la_oenb[18]
*261 la_oenb[19]
*262 la_oenb[1]
*263 la_oenb[20]
*264 la_oenb[21]
*265 la_oenb[22]
*266 la_oenb[23]
*267 la_oenb[24]
*268 la_oenb[25]
*269 la_oenb[26]
*270 la_oenb[27]
*271 la_oenb[28]
*272 la_oenb[29]
*273 la_oenb[2]
*274 la_oenb[30]
*275 la_oenb[31]
*276 la_oenb[32]
*277 la_oenb[33]
*278 la_oenb[34]
*279 la_oenb[35]
*280 la_oenb[36]
*281 la_oenb[37]
*282 la_oenb[38]
*283 la_oenb[39]
*284 la_oenb[3]
*285 la_oenb[40]
*286 la_oenb[41]
*287 la_oenb[42]
*288 la_oenb[43]
*289 la_oenb[44]
*290 la_oenb[45]
*291 la_oenb[46]
*292 la_oenb[47]
*293 la_oenb[48]
*294 la_oenb[49]
*295 la_oenb[4]
*296 la_oenb[50]
*297 la_oenb[51]
*298 la_oenb[52]
*299 la_oenb[53]
*300 la_oenb[54]
*301 la_oenb[55]
*302 la_oenb[56]
*303 la_oenb[57]
*304 la_oenb[58]
*305 la_oenb[59]
*306 la_oenb[5]
*307 la_oenb[60]
*308 la_oenb[61]
*309 la_oenb[62]
*310 la_oenb[63]
*311 la_oenb[64]
*312 la_oenb[65]
*313 la_oenb[66]
*314 la_oenb[67]
*315 la_oenb[68]
*316 la_oenb[69]
*317 la_oenb[6]
*318 la_oenb[70]
*319 la_oenb[71]
*320 la_oenb[72]
*321 la_oenb[73]
*322 la_oenb[74]
*323 la_oenb[75]
*324 la_oenb[76]
*325 la_oenb[77]
*326 la_oenb[78]
*327 la_oenb[79]
*328 la_oenb[7]
*329 la_oenb[80]
*330 la_oenb[81]
*331 la_oenb[82]
*332 la_oenb[83]
*333 la_oenb[84]
*334 la_oenb[85]
*335 la_oenb[86]
*336 la_oenb[87]
*337 la_oenb[88]
*338 la_oenb[89]
*339 la_oenb[8]
*340 la_oenb[90]
*341 la_oenb[91]
*342 la_oenb[92]
*343 la_oenb[93]
*344 la_oenb[94]
*345 la_oenb[95]
*346 la_oenb[96]
*347 la_oenb[97]
*348 la_oenb[98]
*349 la_oenb[99]
*350 la_oenb[9]
*359 wb_clk_i
*360 wb_rst_i
*361 wbs_adr_i[0]
*362 wbs_adr_i[10]
*363 wbs_adr_i[11]
*364 wbs_adr_i[12]
*365 wbs_adr_i[13]
*366 wbs_adr_i[14]
*367 wbs_adr_i[15]
*368 wbs_adr_i[16]
*369 wbs_adr_i[17]
*370 wbs_adr_i[18]
*371 wbs_adr_i[19]
*372 wbs_adr_i[1]
*373 wbs_adr_i[20]
*374 wbs_adr_i[21]
*375 wbs_adr_i[22]
*376 wbs_adr_i[23]
*377 wbs_adr_i[24]
*378 wbs_adr_i[25]
*379 wbs_adr_i[26]
*380 wbs_adr_i[27]
*381 wbs_adr_i[28]
*382 wbs_adr_i[29]
*383 wbs_adr_i[2]
*384 wbs_adr_i[30]
*385 wbs_adr_i[31]
*386 wbs_adr_i[3]
*387 wbs_adr_i[4]
*388 wbs_adr_i[5]
*389 wbs_adr_i[6]
*390 wbs_adr_i[7]
*391 wbs_adr_i[8]
*392 wbs_adr_i[9]
*393 wbs_cyc_i
*394 wbs_dat_i[0]
*395 wbs_dat_i[10]
*396 wbs_dat_i[11]
*397 wbs_dat_i[12]
*398 wbs_dat_i[13]
*399 wbs_dat_i[14]
*400 wbs_dat_i[15]
*401 wbs_dat_i[16]
*402 wbs_dat_i[17]
*403 wbs_dat_i[18]
*404 wbs_dat_i[19]
*405 wbs_dat_i[1]
*406 wbs_dat_i[20]
*407 wbs_dat_i[21]
*408 wbs_dat_i[22]
*409 wbs_dat_i[23]
*410 wbs_dat_i[24]
*411 wbs_dat_i[25]
*412 wbs_dat_i[26]
*413 wbs_dat_i[27]
*414 wbs_dat_i[28]
*415 wbs_dat_i[29]
*416 wbs_dat_i[2]
*417 wbs_dat_i[30]
*418 wbs_dat_i[31]
*419 wbs_dat_i[3]
*420 wbs_dat_i[4]
*421 wbs_dat_i[5]
*422 wbs_dat_i[6]
*423 wbs_dat_i[7]
*424 wbs_dat_i[8]
*425 wbs_dat_i[9]
*426 wbs_sel_i[0]
*427 wbs_sel_i[1]
*428 wbs_sel_i[2]
*429 wbs_sel_i[3]
*430 wbs_stb_i
*431 wbs_we_i
*432 top_I\.branch\[0\]\.col_um\[0\]\.um_bot_I\.uio_oe\[0\]
*433 top_I\.branch\[0\]\.col_um\[0\]\.um_bot_I\.uio_oe\[1\]
*434 top_I\.branch\[0\]\.col_um\[0\]\.um_bot_I\.uio_oe\[2\]
*435 top_I\.branch\[0\]\.col_um\[0\]\.um_bot_I\.uio_oe\[3\]
*436 top_I\.branch\[0\]\.col_um\[0\]\.um_bot_I\.uio_oe\[4\]
*437 top_I\.branch\[0\]\.col_um\[0\]\.um_bot_I\.uio_oe\[5\]
*438 top_I\.branch\[0\]\.col_um\[0\]\.um_bot_I\.uio_oe\[6\]
*439 top_I\.branch\[0\]\.col_um\[0\]\.um_bot_I\.uio_oe\[7\]
*440 top_I\.branch\[0\]\.col_um\[0\]\.um_bot_I\.uio_out\[0\]
*441 top_I\.branch\[0\]\.col_um\[0\]\.um_bot_I\.uio_out\[1\]
*442 top_I\.branch\[0\]\.col_um\[0\]\.um_bot_I\.uio_out\[2\]
*443 top_I\.branch\[0\]\.col_um\[0\]\.um_bot_I\.uio_out\[3\]
*444 top_I\.branch\[0\]\.col_um\[0\]\.um_bot_I\.uio_out\[4\]
*445 top_I\.branch\[0\]\.col_um\[0\]\.um_bot_I\.uio_out\[5\]
*446 top_I\.branch\[0\]\.col_um\[0\]\.um_bot_I\.uio_out\[6\]
*447 top_I\.branch\[0\]\.col_um\[0\]\.um_bot_I\.uio_out\[7\]
*448 top_I\.branch\[0\]\.col_um\[0\]\.um_bot_I\.uo_out\[0\]
*449 top_I\.branch\[0\]\.col_um\[0\]\.um_bot_I\.uo_out\[1\]
*450 top_I\.branch\[0\]\.col_um\[0\]\.um_bot_I\.uo_out\[2\]
*451 top_I\.branch\[0\]\.col_um\[0\]\.um_bot_I\.uo_out\[3\]
*452 top_I\.branch\[0\]\.col_um\[0\]\.um_bot_I\.uo_out\[4\]
*453 top_I\.branch\[0\]\.col_um\[0\]\.um_bot_I\.uo_out\[5\]
*454 top_I\.branch\[0\]\.col_um\[0\]\.um_bot_I\.uo_out\[6\]
*455 top_I\.branch\[0\]\.col_um\[0\]\.um_bot_I\.uo_out\[7\]
*456 top_I\.branch\[0\]\.col_um\[0\]\.um_top_I\.uio_oe\[0\]
*457 top_I\.branch\[0\]\.col_um\[0\]\.um_top_I\.uio_oe\[1\]
*458 top_I\.branch\[0\]\.col_um\[0\]\.um_top_I\.uio_oe\[2\]
*459 top_I\.branch\[0\]\.col_um\[0\]\.um_top_I\.uio_oe\[3\]
*460 top_I\.branch\[0\]\.col_um\[0\]\.um_top_I\.uio_oe\[4\]
*461 top_I\.branch\[0\]\.col_um\[0\]\.um_top_I\.uio_oe\[5\]
*462 top_I\.branch\[0\]\.col_um\[0\]\.um_top_I\.uio_oe\[6\]
*463 top_I\.branch\[0\]\.col_um\[0\]\.um_top_I\.uio_oe\[7\]
*464 top_I\.branch\[0\]\.col_um\[0\]\.um_top_I\.uio_out\[0\]
*465 top_I\.branch\[0\]\.col_um\[0\]\.um_top_I\.uio_out\[1\]
*466 top_I\.branch\[0\]\.col_um\[0\]\.um_top_I\.uio_out\[2\]
*467 top_I\.branch\[0\]\.col_um\[0\]\.um_top_I\.uio_out\[3\]
*468 top_I\.branch\[0\]\.col_um\[0\]\.um_top_I\.uio_out\[4\]
*469 top_I\.branch\[0\]\.col_um\[0\]\.um_top_I\.uio_out\[5\]
*470 top_I\.branch\[0\]\.col_um\[0\]\.um_top_I\.uio_out\[6\]
*471 top_I\.branch\[0\]\.col_um\[0\]\.um_top_I\.uio_out\[7\]
*472 top_I\.branch\[0\]\.col_um\[0\]\.um_top_I\.uo_out\[0\]
*473 top_I\.branch\[0\]\.col_um\[0\]\.um_top_I\.uo_out\[1\]
*474 top_I\.branch\[0\]\.col_um\[0\]\.um_top_I\.uo_out\[2\]
*475 top_I\.branch\[0\]\.col_um\[0\]\.um_top_I\.uo_out\[3\]
*476 top_I\.branch\[0\]\.col_um\[0\]\.um_top_I\.uo_out\[4\]
*477 top_I\.branch\[0\]\.col_um\[0\]\.um_top_I\.uo_out\[5\]
*478 top_I\.branch\[0\]\.col_um\[0\]\.um_top_I\.uo_out\[6\]
*479 top_I\.branch\[0\]\.col_um\[0\]\.um_top_I\.uo_out\[7\]
*480 top_I\.branch\[0\]\.col_um\[1\]\.um_bot_I\.uio_oe\[0\]
*481 top_I\.branch\[0\]\.col_um\[1\]\.um_bot_I\.uio_oe\[1\]
*482 top_I\.branch\[0\]\.col_um\[1\]\.um_bot_I\.uio_oe\[2\]
*483 top_I\.branch\[0\]\.col_um\[1\]\.um_bot_I\.uio_oe\[3\]
*484 top_I\.branch\[0\]\.col_um\[1\]\.um_bot_I\.uio_oe\[4\]
*485 top_I\.branch\[0\]\.col_um\[1\]\.um_bot_I\.uio_oe\[5\]
*486 top_I\.branch\[0\]\.col_um\[1\]\.um_bot_I\.uio_oe\[6\]
*487 top_I\.branch\[0\]\.col_um\[1\]\.um_bot_I\.uio_oe\[7\]
*488 top_I\.branch\[0\]\.col_um\[1\]\.um_bot_I\.uio_out\[0\]
*489 top_I\.branch\[0\]\.col_um\[1\]\.um_bot_I\.uio_out\[1\]
*490 top_I\.branch\[0\]\.col_um\[1\]\.um_bot_I\.uio_out\[2\]
*491 top_I\.branch\[0\]\.col_um\[1\]\.um_bot_I\.uio_out\[3\]
*492 top_I\.branch\[0\]\.col_um\[1\]\.um_bot_I\.uio_out\[4\]
*493 top_I\.branch\[0\]\.col_um\[1\]\.um_bot_I\.uio_out\[5\]
*494 top_I\.branch\[0\]\.col_um\[1\]\.um_bot_I\.uio_out\[6\]
*495 top_I\.branch\[0\]\.col_um\[1\]\.um_bot_I\.uio_out\[7\]
*496 top_I\.branch\[0\]\.col_um\[1\]\.um_bot_I\.uo_out\[0\]
*497 top_I\.branch\[0\]\.col_um\[1\]\.um_bot_I\.uo_out\[1\]
*498 top_I\.branch\[0\]\.col_um\[1\]\.um_bot_I\.uo_out\[2\]
*499 top_I\.branch\[0\]\.col_um\[1\]\.um_bot_I\.uo_out\[3\]
*500 top_I\.branch\[0\]\.col_um\[1\]\.um_bot_I\.uo_out\[4\]
*501 top_I\.branch\[0\]\.col_um\[1\]\.um_bot_I\.uo_out\[5\]
*502 top_I\.branch\[0\]\.col_um\[1\]\.um_bot_I\.uo_out\[6\]
*503 top_I\.branch\[0\]\.col_um\[1\]\.um_bot_I\.uo_out\[7\]
*504 top_I\.branch\[0\]\.col_um\[2\]\.um_bot_I\.uio_oe\[0\]
*505 top_I\.branch\[0\]\.col_um\[2\]\.um_bot_I\.uio_oe\[1\]
*506 top_I\.branch\[0\]\.col_um\[2\]\.um_bot_I\.uio_oe\[2\]
*507 top_I\.branch\[0\]\.col_um\[2\]\.um_bot_I\.uio_oe\[3\]
*508 top_I\.branch\[0\]\.col_um\[2\]\.um_bot_I\.uio_oe\[4\]
*509 top_I\.branch\[0\]\.col_um\[2\]\.um_bot_I\.uio_oe\[5\]
*510 top_I\.branch\[0\]\.col_um\[2\]\.um_bot_I\.uio_oe\[6\]
*511 top_I\.branch\[0\]\.col_um\[2\]\.um_bot_I\.uio_oe\[7\]
*512 top_I\.branch\[0\]\.col_um\[2\]\.um_bot_I\.uio_out\[0\]
*513 top_I\.branch\[0\]\.col_um\[2\]\.um_bot_I\.uio_out\[1\]
*514 top_I\.branch\[0\]\.col_um\[2\]\.um_bot_I\.uio_out\[2\]
*515 top_I\.branch\[0\]\.col_um\[2\]\.um_bot_I\.uio_out\[3\]
*516 top_I\.branch\[0\]\.col_um\[2\]\.um_bot_I\.uio_out\[4\]
*517 top_I\.branch\[0\]\.col_um\[2\]\.um_bot_I\.uio_out\[5\]
*518 top_I\.branch\[0\]\.col_um\[2\]\.um_bot_I\.uio_out\[6\]
*519 top_I\.branch\[0\]\.col_um\[2\]\.um_bot_I\.uio_out\[7\]
*520 top_I\.branch\[0\]\.col_um\[2\]\.um_bot_I\.uo_out\[0\]
*521 top_I\.branch\[0\]\.col_um\[2\]\.um_bot_I\.uo_out\[1\]
*522 top_I\.branch\[0\]\.col_um\[2\]\.um_bot_I\.uo_out\[2\]
*523 top_I\.branch\[0\]\.col_um\[2\]\.um_bot_I\.uo_out\[3\]
*524 top_I\.branch\[0\]\.col_um\[2\]\.um_bot_I\.uo_out\[4\]
*525 top_I\.branch\[0\]\.col_um\[2\]\.um_bot_I\.uo_out\[5\]
*526 top_I\.branch\[0\]\.col_um\[2\]\.um_bot_I\.uo_out\[6\]
*527 top_I\.branch\[0\]\.col_um\[2\]\.um_bot_I\.uo_out\[7\]
*528 top_I\.branch\[0\]\.col_um\[3\]\.um_bot_I\.uio_oe\[0\]
*529 top_I\.branch\[0\]\.col_um\[3\]\.um_bot_I\.uio_oe\[1\]
*530 top_I\.branch\[0\]\.col_um\[3\]\.um_bot_I\.uio_oe\[2\]
*531 top_I\.branch\[0\]\.col_um\[3\]\.um_bot_I\.uio_oe\[3\]
*532 top_I\.branch\[0\]\.col_um\[3\]\.um_bot_I\.uio_oe\[4\]
*533 top_I\.branch\[0\]\.col_um\[3\]\.um_bot_I\.uio_oe\[5\]
*534 top_I\.branch\[0\]\.col_um\[3\]\.um_bot_I\.uio_oe\[6\]
*535 top_I\.branch\[0\]\.col_um\[3\]\.um_bot_I\.uio_oe\[7\]
*536 top_I\.branch\[0\]\.col_um\[3\]\.um_bot_I\.uio_out\[0\]
*537 top_I\.branch\[0\]\.col_um\[3\]\.um_bot_I\.uio_out\[1\]
*538 top_I\.branch\[0\]\.col_um\[3\]\.um_bot_I\.uio_out\[2\]
*539 top_I\.branch\[0\]\.col_um\[3\]\.um_bot_I\.uio_out\[3\]
*540 top_I\.branch\[0\]\.col_um\[3\]\.um_bot_I\.uio_out\[4\]
*541 top_I\.branch\[0\]\.col_um\[3\]\.um_bot_I\.uio_out\[5\]
*542 top_I\.branch\[0\]\.col_um\[3\]\.um_bot_I\.uio_out\[6\]
*543 top_I\.branch\[0\]\.col_um\[3\]\.um_bot_I\.uio_out\[7\]
*544 top_I\.branch\[0\]\.col_um\[3\]\.um_bot_I\.uo_out\[0\]
*545 top_I\.branch\[0\]\.col_um\[3\]\.um_bot_I\.uo_out\[1\]
*546 top_I\.branch\[0\]\.col_um\[3\]\.um_bot_I\.uo_out\[2\]
*547 top_I\.branch\[0\]\.col_um\[3\]\.um_bot_I\.uo_out\[3\]
*548 top_I\.branch\[0\]\.col_um\[3\]\.um_bot_I\.uo_out\[4\]
*549 top_I\.branch\[0\]\.col_um\[3\]\.um_bot_I\.uo_out\[5\]
*550 top_I\.branch\[0\]\.col_um\[3\]\.um_bot_I\.uo_out\[6\]
*551 top_I\.branch\[0\]\.col_um\[3\]\.um_bot_I\.uo_out\[7\]
*552 top_I\.branch\[0\]\.col_um\[4\]\.um_bot_I\.uio_oe\[0\]
*553 top_I\.branch\[0\]\.col_um\[4\]\.um_bot_I\.uio_oe\[1\]
*554 top_I\.branch\[0\]\.col_um\[4\]\.um_bot_I\.uio_oe\[2\]
*555 top_I\.branch\[0\]\.col_um\[4\]\.um_bot_I\.uio_oe\[3\]
*556 top_I\.branch\[0\]\.col_um\[4\]\.um_bot_I\.uio_oe\[4\]
*557 top_I\.branch\[0\]\.col_um\[4\]\.um_bot_I\.uio_oe\[5\]
*558 top_I\.branch\[0\]\.col_um\[4\]\.um_bot_I\.uio_oe\[6\]
*559 top_I\.branch\[0\]\.col_um\[4\]\.um_bot_I\.uio_oe\[7\]
*560 top_I\.branch\[0\]\.col_um\[4\]\.um_bot_I\.uio_out\[0\]
*561 top_I\.branch\[0\]\.col_um\[4\]\.um_bot_I\.uio_out\[1\]
*562 top_I\.branch\[0\]\.col_um\[4\]\.um_bot_I\.uio_out\[2\]
*563 top_I\.branch\[0\]\.col_um\[4\]\.um_bot_I\.uio_out\[3\]
*564 top_I\.branch\[0\]\.col_um\[4\]\.um_bot_I\.uio_out\[4\]
*565 top_I\.branch\[0\]\.col_um\[4\]\.um_bot_I\.uio_out\[5\]
*566 top_I\.branch\[0\]\.col_um\[4\]\.um_bot_I\.uio_out\[6\]
*567 top_I\.branch\[0\]\.col_um\[4\]\.um_bot_I\.uio_out\[7\]
*568 top_I\.branch\[0\]\.col_um\[4\]\.um_bot_I\.uo_out\[0\]
*569 top_I\.branch\[0\]\.col_um\[4\]\.um_bot_I\.uo_out\[1\]
*570 top_I\.branch\[0\]\.col_um\[4\]\.um_bot_I\.uo_out\[2\]
*571 top_I\.branch\[0\]\.col_um\[4\]\.um_bot_I\.uo_out\[3\]
*572 top_I\.branch\[0\]\.col_um\[4\]\.um_bot_I\.uo_out\[4\]
*573 top_I\.branch\[0\]\.col_um\[4\]\.um_bot_I\.uo_out\[5\]
*574 top_I\.branch\[0\]\.col_um\[4\]\.um_bot_I\.uo_out\[6\]
*575 top_I\.branch\[0\]\.col_um\[4\]\.um_bot_I\.uo_out\[7\]
*576 top_I\.branch\[0\]\.col_um\[5\]\.um_bot_I\.uio_oe\[0\]
*577 top_I\.branch\[0\]\.col_um\[5\]\.um_bot_I\.uio_oe\[1\]
*578 top_I\.branch\[0\]\.col_um\[5\]\.um_bot_I\.uio_oe\[2\]
*579 top_I\.branch\[0\]\.col_um\[5\]\.um_bot_I\.uio_oe\[3\]
*580 top_I\.branch\[0\]\.col_um\[5\]\.um_bot_I\.uio_oe\[4\]
*581 top_I\.branch\[0\]\.col_um\[5\]\.um_bot_I\.uio_oe\[5\]
*582 top_I\.branch\[0\]\.col_um\[5\]\.um_bot_I\.uio_oe\[6\]
*583 top_I\.branch\[0\]\.col_um\[5\]\.um_bot_I\.uio_oe\[7\]
*584 top_I\.branch\[0\]\.col_um\[5\]\.um_bot_I\.uio_out\[0\]
*585 top_I\.branch\[0\]\.col_um\[5\]\.um_bot_I\.uio_out\[1\]
*586 top_I\.branch\[0\]\.col_um\[5\]\.um_bot_I\.uio_out\[2\]
*587 top_I\.branch\[0\]\.col_um\[5\]\.um_bot_I\.uio_out\[3\]
*588 top_I\.branch\[0\]\.col_um\[5\]\.um_bot_I\.uio_out\[4\]
*589 top_I\.branch\[0\]\.col_um\[5\]\.um_bot_I\.uio_out\[5\]
*590 top_I\.branch\[0\]\.col_um\[5\]\.um_bot_I\.uio_out\[6\]
*591 top_I\.branch\[0\]\.col_um\[5\]\.um_bot_I\.uio_out\[7\]
*592 top_I\.branch\[0\]\.col_um\[5\]\.um_bot_I\.uo_out\[0\]
*593 top_I\.branch\[0\]\.col_um\[5\]\.um_bot_I\.uo_out\[1\]
*594 top_I\.branch\[0\]\.col_um\[5\]\.um_bot_I\.uo_out\[2\]
*595 top_I\.branch\[0\]\.col_um\[5\]\.um_bot_I\.uo_out\[3\]
*596 top_I\.branch\[0\]\.col_um\[5\]\.um_bot_I\.uo_out\[4\]
*597 top_I\.branch\[0\]\.col_um\[5\]\.um_bot_I\.uo_out\[5\]
*598 top_I\.branch\[0\]\.col_um\[5\]\.um_bot_I\.uo_out\[6\]
*599 top_I\.branch\[0\]\.col_um\[5\]\.um_bot_I\.uo_out\[7\]
*600 top_I\.branch\[0\]\.col_um\[6\]\.um_bot_I\.uio_oe\[0\]
*601 top_I\.branch\[0\]\.col_um\[6\]\.um_bot_I\.uio_oe\[1\]
*602 top_I\.branch\[0\]\.col_um\[6\]\.um_bot_I\.uio_oe\[2\]
*603 top_I\.branch\[0\]\.col_um\[6\]\.um_bot_I\.uio_oe\[3\]
*604 top_I\.branch\[0\]\.col_um\[6\]\.um_bot_I\.uio_oe\[4\]
*605 top_I\.branch\[0\]\.col_um\[6\]\.um_bot_I\.uio_oe\[5\]
*606 top_I\.branch\[0\]\.col_um\[6\]\.um_bot_I\.uio_oe\[6\]
*607 top_I\.branch\[0\]\.col_um\[6\]\.um_bot_I\.uio_oe\[7\]
*608 top_I\.branch\[0\]\.col_um\[6\]\.um_bot_I\.uio_out\[0\]
*609 top_I\.branch\[0\]\.col_um\[6\]\.um_bot_I\.uio_out\[1\]
*610 top_I\.branch\[0\]\.col_um\[6\]\.um_bot_I\.uio_out\[2\]
*611 top_I\.branch\[0\]\.col_um\[6\]\.um_bot_I\.uio_out\[3\]
*612 top_I\.branch\[0\]\.col_um\[6\]\.um_bot_I\.uio_out\[4\]
*613 top_I\.branch\[0\]\.col_um\[6\]\.um_bot_I\.uio_out\[5\]
*614 top_I\.branch\[0\]\.col_um\[6\]\.um_bot_I\.uio_out\[6\]
*615 top_I\.branch\[0\]\.col_um\[6\]\.um_bot_I\.uio_out\[7\]
*616 top_I\.branch\[0\]\.col_um\[6\]\.um_bot_I\.uo_out\[0\]
*617 top_I\.branch\[0\]\.col_um\[6\]\.um_bot_I\.uo_out\[1\]
*618 top_I\.branch\[0\]\.col_um\[6\]\.um_bot_I\.uo_out\[2\]
*619 top_I\.branch\[0\]\.col_um\[6\]\.um_bot_I\.uo_out\[3\]
*620 top_I\.branch\[0\]\.col_um\[6\]\.um_bot_I\.uo_out\[4\]
*621 top_I\.branch\[0\]\.col_um\[6\]\.um_bot_I\.uo_out\[5\]
*622 top_I\.branch\[0\]\.col_um\[6\]\.um_bot_I\.uo_out\[6\]
*623 top_I\.branch\[0\]\.col_um\[6\]\.um_bot_I\.uo_out\[7\]
*624 top_I\.branch\[0\]\.col_um\[7\]\.um_bot_I\.uio_oe\[0\]
*625 top_I\.branch\[0\]\.col_um\[7\]\.um_bot_I\.uio_oe\[1\]
*626 top_I\.branch\[0\]\.col_um\[7\]\.um_bot_I\.uio_oe\[2\]
*627 top_I\.branch\[0\]\.col_um\[7\]\.um_bot_I\.uio_oe\[3\]
*628 top_I\.branch\[0\]\.col_um\[7\]\.um_bot_I\.uio_oe\[4\]
*629 top_I\.branch\[0\]\.col_um\[7\]\.um_bot_I\.uio_oe\[5\]
*630 top_I\.branch\[0\]\.col_um\[7\]\.um_bot_I\.uio_oe\[6\]
*631 top_I\.branch\[0\]\.col_um\[7\]\.um_bot_I\.uio_oe\[7\]
*632 top_I\.branch\[0\]\.col_um\[7\]\.um_bot_I\.uio_out\[0\]
*633 top_I\.branch\[0\]\.col_um\[7\]\.um_bot_I\.uio_out\[1\]
*634 top_I\.branch\[0\]\.col_um\[7\]\.um_bot_I\.uio_out\[2\]
*635 top_I\.branch\[0\]\.col_um\[7\]\.um_bot_I\.uio_out\[3\]
*636 top_I\.branch\[0\]\.col_um\[7\]\.um_bot_I\.uio_out\[4\]
*637 top_I\.branch\[0\]\.col_um\[7\]\.um_bot_I\.uio_out\[5\]
*638 top_I\.branch\[0\]\.col_um\[7\]\.um_bot_I\.uio_out\[6\]
*639 top_I\.branch\[0\]\.col_um\[7\]\.um_bot_I\.uio_out\[7\]
*640 top_I\.branch\[0\]\.col_um\[7\]\.um_bot_I\.uo_out\[0\]
*641 top_I\.branch\[0\]\.col_um\[7\]\.um_bot_I\.uo_out\[1\]
*642 top_I\.branch\[0\]\.col_um\[7\]\.um_bot_I\.uo_out\[2\]
*643 top_I\.branch\[0\]\.col_um\[7\]\.um_bot_I\.uo_out\[3\]
*644 top_I\.branch\[0\]\.col_um\[7\]\.um_bot_I\.uo_out\[4\]
*645 top_I\.branch\[0\]\.col_um\[7\]\.um_bot_I\.uo_out\[5\]
*646 top_I\.branch\[0\]\.col_um\[7\]\.um_bot_I\.uo_out\[6\]
*647 top_I\.branch\[0\]\.col_um\[7\]\.um_bot_I\.uo_out\[7\]
*648 top_I\.branch\[0\]\.l_k_one
*649 top_I\.branch\[0\]\.l_k_zero
*650 top_I\.branch\[0\]\.l_um_ena\[0\]
*651 top_I\.branch\[0\]\.l_um_ena\[10\]
*652 top_I\.branch\[0\]\.l_um_ena\[11\]
*653 top_I\.branch\[0\]\.l_um_ena\[12\]
*654 top_I\.branch\[0\]\.l_um_ena\[13\]
*655 top_I\.branch\[0\]\.l_um_ena\[14\]
*656 top_I\.branch\[0\]\.l_um_ena\[15\]
*657 top_I\.branch\[0\]\.l_um_ena\[1\]
*658 top_I\.branch\[0\]\.l_um_ena\[2\]
*659 top_I\.branch\[0\]\.l_um_ena\[3\]
*660 top_I\.branch\[0\]\.l_um_ena\[4\]
*661 top_I\.branch\[0\]\.l_um_ena\[5\]
*662 top_I\.branch\[0\]\.l_um_ena\[6\]
*663 top_I\.branch\[0\]\.l_um_ena\[7\]
*664 top_I\.branch\[0\]\.l_um_ena\[8\]
*665 top_I\.branch\[0\]\.l_um_ena\[9\]
*666 top_I\.branch\[0\]\.l_um_iw\[0\]
*667 top_I\.branch\[0\]\.l_um_iw\[100\]
*668 top_I\.branch\[0\]\.l_um_iw\[101\]
*669 top_I\.branch\[0\]\.l_um_iw\[102\]
*670 top_I\.branch\[0\]\.l_um_iw\[103\]
*671 top_I\.branch\[0\]\.l_um_iw\[104\]
*672 top_I\.branch\[0\]\.l_um_iw\[105\]
*673 top_I\.branch\[0\]\.l_um_iw\[106\]
*674 top_I\.branch\[0\]\.l_um_iw\[107\]
*675 top_I\.branch\[0\]\.l_um_iw\[108\]
*676 top_I\.branch\[0\]\.l_um_iw\[109\]
*677 top_I\.branch\[0\]\.l_um_iw\[10\]
*678 top_I\.branch\[0\]\.l_um_iw\[110\]
*679 top_I\.branch\[0\]\.l_um_iw\[111\]
*680 top_I\.branch\[0\]\.l_um_iw\[112\]
*681 top_I\.branch\[0\]\.l_um_iw\[113\]
*682 top_I\.branch\[0\]\.l_um_iw\[114\]
*683 top_I\.branch\[0\]\.l_um_iw\[115\]
*684 top_I\.branch\[0\]\.l_um_iw\[116\]
*685 top_I\.branch\[0\]\.l_um_iw\[117\]
*686 top_I\.branch\[0\]\.l_um_iw\[118\]
*687 top_I\.branch\[0\]\.l_um_iw\[119\]
*688 top_I\.branch\[0\]\.l_um_iw\[11\]
*689 top_I\.branch\[0\]\.l_um_iw\[120\]
*690 top_I\.branch\[0\]\.l_um_iw\[121\]
*691 top_I\.branch\[0\]\.l_um_iw\[122\]
*692 top_I\.branch\[0\]\.l_um_iw\[123\]
*693 top_I\.branch\[0\]\.l_um_iw\[124\]
*694 top_I\.branch\[0\]\.l_um_iw\[125\]
*695 top_I\.branch\[0\]\.l_um_iw\[126\]
*696 top_I\.branch\[0\]\.l_um_iw\[127\]
*697 top_I\.branch\[0\]\.l_um_iw\[128\]
*698 top_I\.branch\[0\]\.l_um_iw\[129\]
*699 top_I\.branch\[0\]\.l_um_iw\[12\]
*700 top_I\.branch\[0\]\.l_um_iw\[130\]
*701 top_I\.branch\[0\]\.l_um_iw\[131\]
*702 top_I\.branch\[0\]\.l_um_iw\[132\]
*703 top_I\.branch\[0\]\.l_um_iw\[133\]
*704 top_I\.branch\[0\]\.l_um_iw\[134\]
*705 top_I\.branch\[0\]\.l_um_iw\[135\]
*706 top_I\.branch\[0\]\.l_um_iw\[136\]
*707 top_I\.branch\[0\]\.l_um_iw\[137\]
*708 top_I\.branch\[0\]\.l_um_iw\[138\]
*709 top_I\.branch\[0\]\.l_um_iw\[139\]
*710 top_I\.branch\[0\]\.l_um_iw\[13\]
*711 top_I\.branch\[0\]\.l_um_iw\[140\]
*712 top_I\.branch\[0\]\.l_um_iw\[141\]
*713 top_I\.branch\[0\]\.l_um_iw\[142\]
*714 top_I\.branch\[0\]\.l_um_iw\[143\]
*715 top_I\.branch\[0\]\.l_um_iw\[144\]
*716 top_I\.branch\[0\]\.l_um_iw\[145\]
*717 top_I\.branch\[0\]\.l_um_iw\[146\]
*718 top_I\.branch\[0\]\.l_um_iw\[147\]
*719 top_I\.branch\[0\]\.l_um_iw\[148\]
*720 top_I\.branch\[0\]\.l_um_iw\[149\]
*721 top_I\.branch\[0\]\.l_um_iw\[14\]
*722 top_I\.branch\[0\]\.l_um_iw\[150\]
*723 top_I\.branch\[0\]\.l_um_iw\[151\]
*724 top_I\.branch\[0\]\.l_um_iw\[152\]
*725 top_I\.branch\[0\]\.l_um_iw\[153\]
*726 top_I\.branch\[0\]\.l_um_iw\[154\]
*727 top_I\.branch\[0\]\.l_um_iw\[155\]
*728 top_I\.branch\[0\]\.l_um_iw\[156\]
*729 top_I\.branch\[0\]\.l_um_iw\[157\]
*730 top_I\.branch\[0\]\.l_um_iw\[158\]
*731 top_I\.branch\[0\]\.l_um_iw\[159\]
*732 top_I\.branch\[0\]\.l_um_iw\[15\]
*733 top_I\.branch\[0\]\.l_um_iw\[160\]
*734 top_I\.branch\[0\]\.l_um_iw\[161\]
*735 top_I\.branch\[0\]\.l_um_iw\[162\]
*736 top_I\.branch\[0\]\.l_um_iw\[163\]
*737 top_I\.branch\[0\]\.l_um_iw\[164\]
*738 top_I\.branch\[0\]\.l_um_iw\[165\]
*739 top_I\.branch\[0\]\.l_um_iw\[166\]
*740 top_I\.branch\[0\]\.l_um_iw\[167\]
*741 top_I\.branch\[0\]\.l_um_iw\[168\]
*742 top_I\.branch\[0\]\.l_um_iw\[169\]
*743 top_I\.branch\[0\]\.l_um_iw\[16\]
*744 top_I\.branch\[0\]\.l_um_iw\[170\]
*745 top_I\.branch\[0\]\.l_um_iw\[171\]
*746 top_I\.branch\[0\]\.l_um_iw\[172\]
*747 top_I\.branch\[0\]\.l_um_iw\[173\]
*748 top_I\.branch\[0\]\.l_um_iw\[174\]
*749 top_I\.branch\[0\]\.l_um_iw\[175\]
*750 top_I\.branch\[0\]\.l_um_iw\[176\]
*751 top_I\.branch\[0\]\.l_um_iw\[177\]
*752 top_I\.branch\[0\]\.l_um_iw\[178\]
*753 top_I\.branch\[0\]\.l_um_iw\[179\]
*754 top_I\.branch\[0\]\.l_um_iw\[17\]
*755 top_I\.branch\[0\]\.l_um_iw\[180\]
*756 top_I\.branch\[0\]\.l_um_iw\[181\]
*757 top_I\.branch\[0\]\.l_um_iw\[182\]
*758 top_I\.branch\[0\]\.l_um_iw\[183\]
*759 top_I\.branch\[0\]\.l_um_iw\[184\]
*760 top_I\.branch\[0\]\.l_um_iw\[185\]
*761 top_I\.branch\[0\]\.l_um_iw\[186\]
*762 top_I\.branch\[0\]\.l_um_iw\[187\]
*763 top_I\.branch\[0\]\.l_um_iw\[188\]
*764 top_I\.branch\[0\]\.l_um_iw\[189\]
*765 top_I\.branch\[0\]\.l_um_iw\[18\]
*766 top_I\.branch\[0\]\.l_um_iw\[190\]
*767 top_I\.branch\[0\]\.l_um_iw\[191\]
*768 top_I\.branch\[0\]\.l_um_iw\[192\]
*769 top_I\.branch\[0\]\.l_um_iw\[193\]
*770 top_I\.branch\[0\]\.l_um_iw\[194\]
*771 top_I\.branch\[0\]\.l_um_iw\[195\]
*772 top_I\.branch\[0\]\.l_um_iw\[196\]
*773 top_I\.branch\[0\]\.l_um_iw\[197\]
*774 top_I\.branch\[0\]\.l_um_iw\[198\]
*775 top_I\.branch\[0\]\.l_um_iw\[199\]
*776 top_I\.branch\[0\]\.l_um_iw\[19\]
*777 top_I\.branch\[0\]\.l_um_iw\[1\]
*778 top_I\.branch\[0\]\.l_um_iw\[200\]
*779 top_I\.branch\[0\]\.l_um_iw\[201\]
*780 top_I\.branch\[0\]\.l_um_iw\[202\]
*781 top_I\.branch\[0\]\.l_um_iw\[203\]
*782 top_I\.branch\[0\]\.l_um_iw\[204\]
*783 top_I\.branch\[0\]\.l_um_iw\[205\]
*784 top_I\.branch\[0\]\.l_um_iw\[206\]
*785 top_I\.branch\[0\]\.l_um_iw\[207\]
*786 top_I\.branch\[0\]\.l_um_iw\[208\]
*787 top_I\.branch\[0\]\.l_um_iw\[209\]
*788 top_I\.branch\[0\]\.l_um_iw\[20\]
*789 top_I\.branch\[0\]\.l_um_iw\[210\]
*790 top_I\.branch\[0\]\.l_um_iw\[211\]
*791 top_I\.branch\[0\]\.l_um_iw\[212\]
*792 top_I\.branch\[0\]\.l_um_iw\[213\]
*793 top_I\.branch\[0\]\.l_um_iw\[214\]
*794 top_I\.branch\[0\]\.l_um_iw\[215\]
*795 top_I\.branch\[0\]\.l_um_iw\[216\]
*796 top_I\.branch\[0\]\.l_um_iw\[217\]
*797 top_I\.branch\[0\]\.l_um_iw\[218\]
*798 top_I\.branch\[0\]\.l_um_iw\[219\]
*799 top_I\.branch\[0\]\.l_um_iw\[21\]
*800 top_I\.branch\[0\]\.l_um_iw\[220\]
*801 top_I\.branch\[0\]\.l_um_iw\[221\]
*802 top_I\.branch\[0\]\.l_um_iw\[222\]
*803 top_I\.branch\[0\]\.l_um_iw\[223\]
*804 top_I\.branch\[0\]\.l_um_iw\[224\]
*805 top_I\.branch\[0\]\.l_um_iw\[225\]
*806 top_I\.branch\[0\]\.l_um_iw\[226\]
*807 top_I\.branch\[0\]\.l_um_iw\[227\]
*808 top_I\.branch\[0\]\.l_um_iw\[228\]
*809 top_I\.branch\[0\]\.l_um_iw\[229\]
*810 top_I\.branch\[0\]\.l_um_iw\[22\]
*811 top_I\.branch\[0\]\.l_um_iw\[230\]
*812 top_I\.branch\[0\]\.l_um_iw\[231\]
*813 top_I\.branch\[0\]\.l_um_iw\[232\]
*814 top_I\.branch\[0\]\.l_um_iw\[233\]
*815 top_I\.branch\[0\]\.l_um_iw\[234\]
*816 top_I\.branch\[0\]\.l_um_iw\[235\]
*817 top_I\.branch\[0\]\.l_um_iw\[236\]
*818 top_I\.branch\[0\]\.l_um_iw\[237\]
*819 top_I\.branch\[0\]\.l_um_iw\[238\]
*820 top_I\.branch\[0\]\.l_um_iw\[239\]
*821 top_I\.branch\[0\]\.l_um_iw\[23\]
*822 top_I\.branch\[0\]\.l_um_iw\[240\]
*823 top_I\.branch\[0\]\.l_um_iw\[241\]
*824 top_I\.branch\[0\]\.l_um_iw\[242\]
*825 top_I\.branch\[0\]\.l_um_iw\[243\]
*826 top_I\.branch\[0\]\.l_um_iw\[244\]
*827 top_I\.branch\[0\]\.l_um_iw\[245\]
*828 top_I\.branch\[0\]\.l_um_iw\[246\]
*829 top_I\.branch\[0\]\.l_um_iw\[247\]
*830 top_I\.branch\[0\]\.l_um_iw\[248\]
*831 top_I\.branch\[0\]\.l_um_iw\[249\]
*832 top_I\.branch\[0\]\.l_um_iw\[24\]
*833 top_I\.branch\[0\]\.l_um_iw\[250\]
*834 top_I\.branch\[0\]\.l_um_iw\[251\]
*835 top_I\.branch\[0\]\.l_um_iw\[252\]
*836 top_I\.branch\[0\]\.l_um_iw\[253\]
*837 top_I\.branch\[0\]\.l_um_iw\[254\]
*838 top_I\.branch\[0\]\.l_um_iw\[255\]
*839 top_I\.branch\[0\]\.l_um_iw\[256\]
*840 top_I\.branch\[0\]\.l_um_iw\[257\]
*841 top_I\.branch\[0\]\.l_um_iw\[258\]
*842 top_I\.branch\[0\]\.l_um_iw\[259\]
*843 top_I\.branch\[0\]\.l_um_iw\[25\]
*844 top_I\.branch\[0\]\.l_um_iw\[260\]
*845 top_I\.branch\[0\]\.l_um_iw\[261\]
*846 top_I\.branch\[0\]\.l_um_iw\[262\]
*847 top_I\.branch\[0\]\.l_um_iw\[263\]
*848 top_I\.branch\[0\]\.l_um_iw\[264\]
*849 top_I\.branch\[0\]\.l_um_iw\[265\]
*850 top_I\.branch\[0\]\.l_um_iw\[266\]
*851 top_I\.branch\[0\]\.l_um_iw\[267\]
*852 top_I\.branch\[0\]\.l_um_iw\[268\]
*853 top_I\.branch\[0\]\.l_um_iw\[269\]
*854 top_I\.branch\[0\]\.l_um_iw\[26\]
*855 top_I\.branch\[0\]\.l_um_iw\[270\]
*856 top_I\.branch\[0\]\.l_um_iw\[271\]
*857 top_I\.branch\[0\]\.l_um_iw\[272\]
*858 top_I\.branch\[0\]\.l_um_iw\[273\]
*859 top_I\.branch\[0\]\.l_um_iw\[274\]
*860 top_I\.branch\[0\]\.l_um_iw\[275\]
*861 top_I\.branch\[0\]\.l_um_iw\[276\]
*862 top_I\.branch\[0\]\.l_um_iw\[277\]
*863 top_I\.branch\[0\]\.l_um_iw\[278\]
*864 top_I\.branch\[0\]\.l_um_iw\[279\]
*865 top_I\.branch\[0\]\.l_um_iw\[27\]
*866 top_I\.branch\[0\]\.l_um_iw\[280\]
*867 top_I\.branch\[0\]\.l_um_iw\[281\]
*868 top_I\.branch\[0\]\.l_um_iw\[282\]
*869 top_I\.branch\[0\]\.l_um_iw\[283\]
*870 top_I\.branch\[0\]\.l_um_iw\[284\]
*871 top_I\.branch\[0\]\.l_um_iw\[285\]
*872 top_I\.branch\[0\]\.l_um_iw\[286\]
*873 top_I\.branch\[0\]\.l_um_iw\[287\]
*874 top_I\.branch\[0\]\.l_um_iw\[28\]
*875 top_I\.branch\[0\]\.l_um_iw\[29\]
*876 top_I\.branch\[0\]\.l_um_iw\[2\]