*SPEF "ieee 1481-1999"
*DESIGN "tt_um_cam"
*DATE "11:11:11 Fri 11 11, 1111"
*VENDOR "OpenRCX"
*PROGRAM "Parallel Extraction"
*VERSION "1.0"
*DESIGN_FLOW "NAME_SCOPE LOCAL" "PIN_CAP NONE"
*DIVIDER /
*DELIMITER :
*BUS_DELIMITER []
*T_UNIT 1 NS
*C_UNIT 1 PF
*R_UNIT 1 OHM
*L_UNIT 1 HENRY

*NAME_MAP
*1 clk
*2 ena
*3 rst_n
*4 ui_in[0]
*5 ui_in[1]
*6 ui_in[2]
*7 ui_in[3]
*8 ui_in[4]
*9 ui_in[5]
*10 ui_in[6]
*11 ui_in[7]
*12 uio_in[0]
*13 uio_in[1]
*14 uio_in[2]
*15 uio_in[3]
*16 uio_in[4]
*17 uio_in[5]
*18 uio_in[6]
*19 uio_in[7]
*20 net10
*21 net11
*22 net12
*23 net13
*24 net14
*25 net15
*26 net16
*27 net17
*28 uio_out[0]
*29 uio_out[1]
*30 uio_out[2]
*31 uio_out[3]
*32 uio_out[4]
*33 uio_out[5]
*34 uio_out[6]
*35 uio_out[7]
*36 uo_out[0]
*37 uo_out[1]
*38 uo_out[2]
*39 uo_out[3]
*40 uo_out[4]
*41 uo_out[5]
*42 uo_out[6]
*43 uo_out[7]
*46 _0000_
*47 _0001_
*48 _0002_
*49 _0003_
*50 _0004_
*51 _0005_
*52 _0006_
*53 _0007_
*54 _0008_
*55 _0009_
*56 _0010_
*57 _0011_
*58 _0012_
*59 _0013_
*60 _0014_
*61 _0015_
*62 _0016_
*63 _0017_
*64 _0018_
*65 _0019_
*66 _0020_
*67 _0021_
*68 _0022_
*69 _0023_
*70 _0024_
*71 _0025_
*72 _0026_
*73 _0027_
*74 _0028_
*75 _0029_
*76 _0030_
*77 _0031_
*78 _0032_
*79 _0033_
*80 _0034_
*81 _0035_
*82 _0036_
*83 _0037_
*84 _0038_
*85 _0039_
*86 _0040_
*87 _0041_
*88 _0042_
*89 _0043_
*90 _0044_
*91 _0045_
*92 _0046_
*93 _0047_
*94 _0048_
*95 _0049_
*96 _0050_
*97 _0051_
*98 _0052_
*99 _0053_
*100 _0054_
*101 _0055_
*102 _0056_
*103 _0057_
*104 _0058_
*105 _0059_
*106 _0060_
*107 _0061_
*108 _0062_
*109 _0063_
*110 _0064_
*111 _0065_
*112 _0066_
*113 _0067_
*114 _0068_
*115 _0069_
*116 _0070_
*117 _0071_
*118 _0072_
*119 _0073_
*120 _0074_
*121 _0075_
*122 _0076_
*123 _0077_
*124 _0078_
*125 _0079_
*126 _0080_
*127 _0081_
*128 _0082_
*129 _0083_
*130 _0084_
*131 _0085_
*132 _0086_
*133 _0087_
*134 _0088_
*135 _0089_
*136 _0090_
*137 _0091_
*138 _0092_
*139 _0093_
*140 _0094_
*141 _0095_
*142 _0096_
*143 _0097_
*144 _0098_
*145 _0099_
*146 _0100_
*147 _0101_
*148 _0102_
*149 _0103_
*150 _0104_
*151 _0105_
*152 _0106_
*153 _0107_
*154 _0108_
*155 _0109_
*156 _0110_
*157 _0111_
*158 _0112_
*159 _0113_
*160 _0114_
*161 _0115_
*162 _0116_
*163 _0117_
*164 _0118_
*165 _0119_
*166 _0120_
*167 _0121_
*168 _0122_
*169 _0123_
*170 _0124_
*171 _0125_
*172 _0126_
*173 _0127_
*174 _0128_
*175 _0129_
*176 _0130_
*177 _0131_
*178 _0132_
*179 _0133_
*180 _0134_
*181 _0135_
*182 _0136_
*183 _0137_
*184 _0138_
*185 _0139_
*186 _0140_
*187 _0141_
*188 _0142_
*189 _0143_
*190 _0144_
*191 _0145_
*192 _0146_
*193 _0147_
*194 _0148_
*195 _0149_
*196 _0150_
*197 _0151_
*198 _0152_
*199 _0153_
*200 _0154_
*201 _0155_
*202 _0156_
*203 _0157_
*204 _0158_
*205 _0159_
*206 _0160_
*207 _0161_
*208 _0162_
*209 _0163_
*210 _0164_
*211 _0165_
*212 _0166_
*213 _0167_
*214 _0168_
*215 _0169_
*216 _0170_
*217 _0171_
*218 _0172_
*219 _0173_
*220 _0174_
*221 _0175_
*222 _0176_
*223 _0177_
*224 _0178_
*225 _0179_
*226 _0180_
*227 _0181_
*228 _0182_
*229 _0183_
*230 _0184_
*231 _0185_
*232 _0186_
*233 _0187_
*234 _0188_
*235 _0189_
*236 _0190_
*237 _0191_
*238 _0192_
*239 _0193_
*240 _0194_
*241 _0195_
*242 _0196_
*243 _0197_
*244 _0198_
*245 _0199_
*246 _0200_
*247 _0201_
*248 _0202_
*249 _0203_
*250 _0204_
*251 _0205_
*252 _0206_
*253 _0207_
*254 _0208_
*255 _0209_
*256 _0210_
*257 _0211_
*258 _0212_
*259 _0213_
*260 _0214_
*261 _0215_
*262 _0216_
*263 _0217_
*264 _0218_
*265 _0219_
*266 _0220_
*267 _0221_
*268 _0222_
*269 _0223_
*270 _0224_
*271 _0225_
*272 _0226_
*273 _0227_
*274 _0228_
*275 _0229_
*276 _0230_
*277 _0231_
*278 _0232_
*279 _0233_
*280 _0234_
*281 _0235_
*282 _0236_
*283 _0237_
*284 _0238_
*285 _0239_
*286 _0240_
*287 _0241_
*288 _0242_
*289 _0243_
*290 _0244_
*291 _0245_
*292 _0246_
*293 _0247_
*294 _0248_
*295 _0249_
*296 _0250_
*297 _0251_
*298 _0252_
*299 _0253_
*300 _0254_
*301 _0255_
*302 _0256_
*303 _0257_
*304 _0258_
*305 _0259_
*306 _0260_
*307 _0261_
*308 _0262_
*309 _0263_
*310 _0264_
*311 _0265_
*312 _0266_
*313 _0267_
*314 _0268_
*315 _0269_
*316 _0270_
*317 _0271_
*318 _0272_
*319 _0273_
*320 _0274_
*321 _0275_
*322 _0276_
*323 _0277_
*324 _0278_
*325 _0279_
*326 _0280_
*327 _0281_
*328 _0282_
*329 _0283_
*330 _0284_
*331 _0285_
*332 _0286_
*333 _0287_
*334 _0288_
*335 _0289_
*336 _0290_
*337 _0291_
*338 _0292_
*339 _0293_
*340 _0294_
*341 _0295_
*342 _0296_
*343 _0297_
*344 _0298_
*345 _0299_
*346 _0300_
*347 _0301_
*348 _0302_
*349 _0303_
*350 _0304_
*351 _0305_
*352 _0306_
*353 _0307_
*354 _0308_
*355 _0309_
*356 _0310_
*357 _0311_
*358 _0312_
*359 _0313_
*360 _0314_
*361 _0315_
*362 _0316_
*363 _0317_
*364 _0318_
*365 _0319_
*366 _0320_
*367 _0321_
*368 _0322_
*369 _0323_
*370 _0324_
*371 _0325_
*372 _0326_
*373 _0327_
*374 _0328_
*375 _0329_
*376 _0330_
*377 _0331_
*378 _0332_
*379 _0333_
*380 _0334_
*381 _0335_
*382 _0336_
*383 _0337_
*384 _0338_
*385 _0339_
*386 _0340_
*387 _0341_
*388 _0342_
*389 _0343_
*390 _0344_
*391 _0345_
*392 _0346_
*393 _0347_
*394 _0348_
*395 _0349_
*396 _0350_
*397 _0351_
*398 _0352_
*399 _0353_
*400 _0354_
*401 _0355_
*402 _0356_
*403 _0357_
*404 _0358_
*405 _0359_
*406 _0360_
*407 _0361_
*408 _0362_
*409 _0363_
*410 _0364_
*411 _0365_
*412 _0366_
*413 _0367_
*414 _0368_
*415 _0369_
*416 _0370_
*417 _0371_
*418 _0372_
*419 _0373_
*420 _0374_
*421 _0375_
*422 _0376_
*423 _0377_
*424 _0378_
*425 _0379_
*426 _0380_
*427 _0381_
*428 _0382_
*429 _0383_
*430 _0384_
*431 _0385_
*432 _0386_
*433 _0387_
*434 _0388_
*435 _0389_
*436 _0390_
*437 _0391_
*438 _0392_
*439 _0393_
*440 _0394_
*441 _0395_
*442 _0396_
*443 _0397_
*444 _0398_
*445 _0399_
*446 _0400_
*447 _0401_
*448 _0402_
*449 _0403_
*450 _0404_
*451 _0405_
*452 _0406_
*453 _0407_
*454 _0408_
*455 _0409_
*456 _0410_
*457 _0411_
*458 _0412_
*459 _0413_
*460 _0414_
*461 _0415_
*462 _0416_
*463 _0417_
*464 _0418_
*465 _0419_
*466 _0420_
*467 _0421_
*468 _0422_
*469 _0423_
*470 _0424_
*471 _0425_
*472 _0426_
*473 _0427_
*474 _0428_
*475 _0429_
*476 _0430_
*477 _0431_
*478 _0432_
*479 _0433_
*480 _0434_
*481 _0435_
*482 _0436_
*483 _0437_
*484 _0438_
*485 _0439_
*486 _0440_
*487 _0441_
*488 _0442_
*489 _0443_
*490 _0444_
*491 _0445_
*492 _0446_
*493 _0447_
*494 _0448_
*495 _0449_
*496 _0450_
*497 _0451_
*498 _0452_
*499 _0453_
*500 _0454_
*501 _0455_
*502 _0456_
*503 _0457_
*504 _0458_
*505 _0459_
*506 _0460_
*507 _0461_
*508 _0462_
*509 _0463_
*510 _0464_
*511 _0465_
*512 _0466_
*513 _0467_
*514 _0468_
*515 _0469_
*516 _0470_
*517 _0471_
*518 _0472_
*519 _0473_
*520 _0474_
*521 _0475_
*522 _0476_
*523 _0477_
*524 _0478_
*525 _0479_
*526 _0480_
*527 _0481_
*528 _0482_
*529 _0483_
*530 _0484_
*531 _0485_
*532 _0486_
*533 _0487_
*534 _0488_
*535 _0489_
*536 _0490_
*537 _0491_
*538 _0492_
*539 _0493_
*540 _0494_
*541 _0495_
*542 _0496_
*543 _0497_
*544 _0498_
*545 _0499_
*546 _0500_
*547 _0501_
*548 _0502_
*549 _0503_
*550 _0504_
*551 _0505_
*552 _0506_
*553 _0507_
*554 _0508_
*555 _0509_
*556 _0510_
*557 _0511_
*558 _0512_
*559 _0513_
*560 _0514_
*561 _0515_
*562 _0516_
*563 _0517_
*564 _0518_
*565 _0519_
*566 _0520_
*567 _0521_
*568 _0522_
*569 _0523_
*570 _0524_
*571 _0525_
*572 _0526_
*573 _0527_
*574 _0528_
*575 _0529_
*576 _0530_
*577 _0531_
*578 _0532_
*579 _0533_
*580 _0534_
*581 _0535_
*582 _0536_
*583 _0537_
*584 _0538_
*585 _0539_
*586 _0540_
*587 _0541_
*588 _0542_
*589 _0543_
*590 _0544_
*591 _0545_
*592 _0546_
*593 _0547_
*594 _0548_
*595 _0549_
*596 _0550_
*597 _0551_
*598 _0552_
*599 _0553_
*600 _0554_
*601 _0555_
*602 _0556_
*603 _0557_
*604 _0558_
*605 _0559_
*606 _0560_
*607 _0561_
*608 _0562_
*609 _0563_
*610 _0564_
*611 _0565_
*612 cam0\.current_address\[0\]
*613 cam0\.current_address\[10\]
*614 cam0\.current_address\[11\]
*615 cam0\.current_address\[12\]
*616 cam0\.current_address\[13\]
*617 cam0\.current_address\[14\]
*618 cam0\.current_address\[15\]
*619 cam0\.current_address\[1\]
*620 cam0\.current_address\[2\]
*621 cam0\.current_address\[3\]
*622 cam0\.current_address\[4\]
*623 cam0\.current_address\[5\]
*624 cam0\.current_address\[6\]
*625 cam0\.current_address\[7\]
*626 cam0\.current_address\[8\]
*627 cam0\.current_address\[9\]
*628 cam0\.data\[0\]\[0\]
*629 cam0\.data\[0\]\[1\]
*630 cam0\.data\[0\]\[2\]
*631 cam0\.data\[0\]\[3\]
*632 cam0\.data\[0\]\[4\]
*633 cam0\.data\[0\]\[5\]
*634 cam0\.data\[0\]\[6\]
*635 cam0\.data\[10\]\[0\]
*636 cam0\.data\[10\]\[1\]
*637 cam0\.data\[10\]\[2\]
*638 cam0\.data\[10\]\[3\]
*639 cam0\.data\[10\]\[4\]
*640 cam0\.data\[10\]\[5\]
*641 cam0\.data\[10\]\[6\]
*642 cam0\.data\[11\]\[0\]
*643 cam0\.data\[11\]\[1\]
*644 cam0\.data\[11\]\[2\]
*645 cam0\.data\[11\]\[3\]
*646 cam0\.data\[11\]\[4\]
*647 cam0\.data\[11\]\[5\]
*648 cam0\.data\[11\]\[6\]
*649 cam0\.data\[12\]\[0\]
*650 cam0\.data\[12\]\[1\]
*651 cam0\.data\[12\]\[2\]
*652 cam0\.data\[12\]\[3\]
*653 cam0\.data\[12\]\[4\]
*654 cam0\.data\[12\]\[5\]
*655 cam0\.data\[12\]\[6\]
*656 cam0\.data\[13\]\[0\]
*657 cam0\.data\[13\]\[1\]
*658 cam0\.data\[13\]\[2\]
*659 cam0\.data\[13\]\[3\]
*660 cam0\.data\[13\]\[4\]
*661 cam0\.data\[13\]\[5\]
*662 cam0\.data\[13\]\[6\]
*663 cam0\.data\[14\]\[0\]
*664 cam0\.data\[14\]\[1\]
*665 cam0\.data\[14\]\[2\]
*666 cam0\.data\[14\]\[3\]
*667 cam0\.data\[14\]\[4\]
*668 cam0\.data\[14\]\[5\]
*669 cam0\.data\[14\]\[6\]
*670 cam0\.data\[15\]\[0\]
*671 cam0\.data\[15\]\[1\]
*672 cam0\.data\[15\]\[2\]
*673 cam0\.data\[15\]\[3\]
*674 cam0\.data\[15\]\[4\]
*675 cam0\.data\[15\]\[5\]
*676 cam0\.data\[15\]\[6\]
*677 cam0\.data\[1\]\[0\]
*678 cam0\.data\[1\]\[1\]
*679 cam0\.data\[1\]\[2\]
*680 cam0\.data\[1\]\[3\]
*681 cam0\.data\[1\]\[4\]
*682 cam0\.data\[1\]\[5\]
*683 cam0\.data\[1\]\[6\]
*684 cam0\.data\[2\]\[0\]
*685 cam0\.data\[2\]\[1\]
*686 cam0\.data\[2\]\[2\]
*687 cam0\.data\[2\]\[3\]
*688 cam0\.data\[2\]\[4\]
*689 cam0\.data\[2\]\[5\]
*690 cam0\.data\[2\]\[6\]
*691 cam0\.data\[3\]\[0\]
*692 cam0\.data\[3\]\[1\]
*693 cam0\.data\[3\]\[2\]
*694 cam0\.data\[3\]\[3\]
*695 cam0\.data\[3\]\[4\]
*696 cam0\.data\[3\]\[5\]
*697 cam0\.data\[3\]\[6\]
*698 cam0\.data\[4\]\[0\]
*699 cam0\.data\[4\]\[1\]
*700 cam0\.data\[4\]\[2\]
*701 cam0\.data\[4\]\[3\]
*702 cam0\.data\[4\]\[4\]
*703 cam0\.data\[4\]\[5\]
*704 cam0\.data\[4\]\[6\]
*705 cam0\.data\[5\]\[0\]
*706 cam0\.data\[5\]\[1\]
*707 cam0\.data\[5\]\[2\]
*708 cam0\.data\[5\]\[3\]
*709 cam0\.data\[5\]\[4\]
*710 cam0\.data\[5\]\[5\]
*711 cam0\.data\[5\]\[6\]
*712 cam0\.data\[6\]\[0\]
*713 cam0\.data\[6\]\[1\]
*714 cam0\.data\[6\]\[2\]
*715 cam0\.data\[6\]\[3\]
*716 cam0\.data\[6\]\[4\]
*717 cam0\.data\[6\]\[5\]
*718 cam0\.data\[6\]\[6\]
*719 cam0\.data\[7\]\[0\]
*720 cam0\.data\[7\]\[1\]
*721 cam0\.data\[7\]\[2\]
*722 cam0\.data\[7\]\[3\]
*723 cam0\.data\[7\]\[4\]
*724 cam0\.data\[7\]\[5\]
*725 cam0\.data\[7\]\[6\]
*726 cam0\.data\[8\]\[0\]
*727 cam0\.data\[8\]\[1\]
*728 cam0\.data\[8\]\[2\]
*729 cam0\.data\[8\]\[3\]
*730 cam0\.data\[8\]\[4\]
*731 cam0\.data\[8\]\[5\]
*732 cam0\.data\[8\]\[6\]
*733 cam0\.data\[9\]\[0\]
*734 cam0\.data\[9\]\[1\]
*735 cam0\.data\[9\]\[2\]
*736 cam0\.data\[9\]\[3\]
*737 cam0\.data\[9\]\[4\]
*738 cam0\.data\[9\]\[5\]
*739 cam0\.data\[9\]\[6\]
*740 clknet_0_clk
*741 clknet_4_0_0_clk
*742 clknet_4_10_0_clk
*743 clknet_4_11_0_clk
*744 clknet_4_12_0_clk
*745 clknet_4_13_0_clk
*746 clknet_4_14_0_clk
*747 clknet_4_15_0_clk
*748 clknet_4_1_0_clk
*749 clknet_4_2_0_clk
*750 clknet_4_3_0_clk
*751 clknet_4_4_0_clk
*752 clknet_4_5_0_clk
*753 clknet_4_6_0_clk
*754 clknet_4_7_0_clk
*755 clknet_4_8_0_clk
*756 clknet_4_9_0_clk
*757 net1
*758 net2
*759 net3
*760 net4
*761 net5
*762 net6
*763 net7
*764 net8
*765 net9
*766 FILLER_0_109
*767 FILLER_0_113
*768 FILLER_0_125
*769 FILLER_0_137
*770 FILLER_0_141
*771 FILLER_0_15
*772 FILLER_0_153
*773 FILLER_0_165
*774 FILLER_0_169
*775 FILLER_0_181
*776 FILLER_0_193
*777 FILLER_0_197
*778 FILLER_0_209
*779 FILLER_0_221
*780 FILLER_0_225
*781 FILLER_0_237
*782 FILLER_0_249
*783 FILLER_0_253
*784 FILLER_0_265
*785 FILLER_0_27
*786 FILLER_0_277
*787 FILLER_0_281
*788 FILLER_0_29
*789 FILLER_0_293
*790 FILLER_0_3
*791 FILLER_0_305
*792 FILLER_0_309
*793 FILLER_0_321
*794 FILLER_0_333
*795 FILLER_0_337
*796 FILLER_0_41
*797 FILLER_0_53
*798 FILLER_0_57
*799 FILLER_0_69
*800 FILLER_0_81
*801 FILLER_0_85
*802 FILLER_0_97
*803 FILLER_10_103
*804 FILLER_10_112
*805 FILLER_10_120
*806 FILLER_10_126
*807 FILLER_10_13
*808 FILLER_10_137
*809 FILLER_10_141
*810 FILLER_10_148
*811 FILLER_10_156
*812 FILLER_10_162
*813 FILLER_10_175
*814 FILLER_10_181
*815 FILLER_10_191
*816 FILLER_10_195
*817 FILLER_10_197
*818 FILLER_10_202
*819 FILLER_10_219
*820 FILLER_10_228
*821 FILLER_10_238
*822 FILLER_10_248
*823 FILLER_10_253
*824 FILLER_10_26
*825 FILLER_10_261
*826 FILLER_10_269
*827 FILLER_10_275
*828 FILLER_10_282
*829 FILLER_10_286
*830 FILLER_10_29
*831 FILLER_10_290
*832 FILLER_10_298
*833 FILLER_10_3
*834 FILLER_10_306
*835 FILLER_10_309
*836 FILLER_10_320
*837 FILLER_10_33
*838 FILLER_10_332
*839 FILLER_10_43
*840 FILLER_10_58
*841 FILLER_10_70
*842 FILLER_10_77
*843 FILLER_10_83
*844 FILLER_10_85
*845 FILLER_10_9
*846 FILLER_10_93
*847 FILLER_11_104
*848 FILLER_11_113
*849 FILLER_11_124
*850 FILLER_11_130
*851 FILLER_11_139
*852 FILLER_11_152
*853 FILLER_11_16
*854 FILLER_11_165
*855 FILLER_11_169
*856 FILLER_11_180
*857 FILLER_11_200
*858 FILLER_11_220
*859 FILLER_11_225
*860 FILLER_11_243
*861 FILLER_11_252
*862 FILLER_11_265
*863 FILLER_11_27
*864 FILLER_11_272
*865 FILLER_11_281
*866 FILLER_11_290
*867 FILLER_11_297
*868 FILLER_11_3
*869 FILLER_11_309
*870 FILLER_11_329
*871 FILLER_11_335
*872 FILLER_11_337
*873 FILLER_11_41
*874 FILLER_11_50
*875 FILLER_11_57
*876 FILLER_11_71
*877 FILLER_11_80
*878 FILLER_11_84
*879 FILLER_11_92
*880 FILLER_12_11
*881 FILLER_12_116
*882 FILLER_12_127
*883 FILLER_12_138
*884 FILLER_12_141
*885 FILLER_12_159
*886 FILLER_12_168
*887 FILLER_12_17
*888 FILLER_12_176
*889 FILLER_12_180
*890 FILLER_12_192
*891 FILLER_12_197
*892 FILLER_12_210
*893 FILLER_12_219
*894 FILLER_12_226
*895 FILLER_12_237
*896 FILLER_12_250
*897 FILLER_12_253
*898 FILLER_12_26
*899 FILLER_12_272
*900 FILLER_12_280
*901 FILLER_12_29
*902 FILLER_12_292
*903 FILLER_12_3
*904 FILLER_12_306
*905 FILLER_12_309
*906 FILLER_12_328
*907 FILLER_12_335
*908 FILLER_12_37
*909 FILLER_12_49
*910 FILLER_12_57
*911 FILLER_12_76
*912 FILLER_12_85
*913 FILLER_12_96
*914 FILLER_13_101
*915 FILLER_13_109
*916 FILLER_13_113
*917 FILLER_13_12
*918 FILLER_13_121
*919 FILLER_13_127
*920 FILLER_13_139
*921 FILLER_13_154
*922 FILLER_13_166
*923 FILLER_13_169
*924 FILLER_13_176
*925 FILLER_13_187
*926 FILLER_13_195
*927 FILLER_13_21
*928 FILLER_13_214
*929 FILLER_13_222
*930 FILLER_13_225
*931 FILLER_13_238
*932 FILLER_13_250
*933 FILLER_13_264
*934 FILLER_13_275
*935 FILLER_13_279
*936 FILLER_13_281
*937 FILLER_13_294
*938 FILLER_13_3
*939 FILLER_13_303
*940 FILLER_13_307
*941 FILLER_13_316
*942 FILLER_13_325
*943 FILLER_13_33
*944 FILLER_13_332
*945 FILLER_13_337
*946 FILLER_13_37
*947 FILLER_13_54
*948 FILLER_13_57
*949 FILLER_13_81
*950 FILLER_13_88
*951 FILLER_14_126
*952 FILLER_14_138
*953 FILLER_14_141
*954 FILLER_14_15
*955 FILLER_14_153
*956 FILLER_14_173
*957 FILLER_14_186
*958 FILLER_14_194
*959 FILLER_14_197
*960 FILLER_14_201
*961 FILLER_14_208
*962 FILLER_14_228
*963 FILLER_14_243
*964 FILLER_14_250
*965 FILLER_14_253
*966 FILLER_14_26
*967 FILLER_14_263
*968 FILLER_14_274
*969 FILLER_14_289
*970 FILLER_14_29
*971 FILLER_14_298
*972 FILLER_14_3
*973 FILLER_14_305
*974 FILLER_14_309
*975 FILLER_14_313
*976 FILLER_14_330
*977 FILLER_14_47
*978 FILLER_14_59
*979 FILLER_14_67
*980 FILLER_14_7
*981 FILLER_14_71
*982 FILLER_14_75
*983 FILLER_14_82
*984 FILLER_14_85
*985 FILLER_14_98
*986 FILLER_15_11
*987 FILLER_15_110
*988 FILLER_15_113
*989 FILLER_15_121
*990 FILLER_15_129
*991 FILLER_15_140
*992 FILLER_15_149
*993 FILLER_15_15
*994 FILLER_15_157
*995 FILLER_15_164
*996 FILLER_15_169
*997 FILLER_15_177
*998 FILLER_15_191
*999 FILLER_15_201
*1000 FILLER_15_209
*1001 FILLER_15_218
*1002 FILLER_15_225
*1003 FILLER_15_235
*1004 FILLER_15_243
*1005 FILLER_15_260
*1006 FILLER_15_269
*1007 FILLER_15_27
*1008 FILLER_15_276
*1009 FILLER_15_281
*1010 FILLER_15_289
*1011 FILLER_15_295
*1012 FILLER_15_3
*1013 FILLER_15_301
*1014 FILLER_15_313
*1015 FILLER_15_320
*1016 FILLER_15_332
*1017 FILLER_15_337
*1018 FILLER_15_47
*1019 FILLER_15_55
*1020 FILLER_15_57
*1021 FILLER_15_69
*1022 FILLER_15_77
*1023 FILLER_15_83
*1024 FILLER_15_90
*1025 FILLER_16_112
*1026 FILLER_16_124
*1027 FILLER_16_133
*1028 FILLER_16_139
*1029 FILLER_16_141
*1030 FILLER_16_15
*1031 FILLER_16_159
*1032 FILLER_16_171
*1033 FILLER_16_19
*1034 FILLER_16_191
*1035 FILLER_16_195
*1036 FILLER_16_197
*1037 FILLER_16_203
*1038 FILLER_16_216
*1039 FILLER_16_231
*1040 FILLER_16_248
*1041 FILLER_16_253
*1042 FILLER_16_26
*1043 FILLER_16_262
*1044 FILLER_16_270
*1045 FILLER_16_277
*1046 FILLER_16_283
*1047 FILLER_16_289
*1048 FILLER_16_29
*1049 FILLER_16_3
*1050 FILLER_16_301
*1051 FILLER_16_307
*1052 FILLER_16_309
*1053 FILLER_16_331
*1054 FILLER_16_337
*1055 FILLER_16_39
*1056 FILLER_16_46
*1057 FILLER_16_62
*1058 FILLER_16_82
*1059 FILLER_16_85
*1060 FILLER_16_98
*1061 FILLER_17_107
*1062 FILLER_17_111
*1063 FILLER_17_113
*1064 FILLER_17_119
*1065 FILLER_17_136
*1066 FILLER_17_140
*1067 FILLER_17_149
*1068 FILLER_17_156
*1069 FILLER_17_160
*1070 FILLER_17_166
*1071 FILLER_17_169
*1072 FILLER_17_185
*1073 FILLER_17_195
*1074 FILLER_17_203
*1075 FILLER_17_221
*1076 FILLER_17_225
*1077 FILLER_17_235
*1078 FILLER_17_24
*1079 FILLER_17_243
*1080 FILLER_17_252
*1081 FILLER_17_264
*1082 FILLER_17_277
*1083 FILLER_17_281
*1084 FILLER_17_291
*1085 FILLER_17_295
*1086 FILLER_17_3
*1087 FILLER_17_312
*1088 FILLER_17_32
*1089 FILLER_17_332
*1090 FILLER_17_337
*1091 FILLER_17_50
*1092 FILLER_17_57
*1093 FILLER_17_64
*1094 FILLER_17_76
*1095 FILLER_17_88
*1096 FILLER_17_95
*1097 FILLER_18_107
*1098 FILLER_18_121
*1099 FILLER_18_13
*1100 FILLER_18_130
*1101 FILLER_18_134
*1102 FILLER_18_138
*1103 FILLER_18_141
*1104 FILLER_18_152
*1105 FILLER_18_172
*1106 FILLER_18_192
*1107 FILLER_18_197
*1108 FILLER_18_204
*1109 FILLER_18_213
*1110 FILLER_18_221
*1111 FILLER_18_225
*1112 FILLER_18_231
*1113 FILLER_18_238
*1114 FILLER_18_250
*1115 FILLER_18_253
*1116 FILLER_18_26
*1117 FILLER_18_263
*1118 FILLER_18_269
*1119 FILLER_18_286
*1120 FILLER_18_29
*1121 FILLER_18_295
*1122 FILLER_18_3
*1123 FILLER_18_304
*1124 FILLER_18_309
*1125 FILLER_18_319
*1126 FILLER_18_331
*1127 FILLER_18_337
*1128 FILLER_18_42
*1129 FILLER_18_50
*1130 FILLER_18_60
*1131 FILLER_18_82
*1132 FILLER_18_85
*1133 FILLER_19_106
*1134 FILLER_19_113
*1135 FILLER_19_13
*1136 FILLER_19_131
*1137 FILLER_19_138
*1138 FILLER_19_151
*1139 FILLER_19_163
*1140 FILLER_19_167
*1141 FILLER_19_169
*1142 FILLER_19_181
*1143 FILLER_19_202
*1144 FILLER_19_210
*1145 FILLER_19_219
*1146 FILLER_19_223
*1147 FILLER_19_225
*1148 FILLER_19_230
*1149 FILLER_19_237
*1150 FILLER_19_25
*1151 FILLER_19_257
*1152 FILLER_19_266
*1153 FILLER_19_276
*1154 FILLER_19_281
*1155 FILLER_19_289
*1156 FILLER_19_3
*1157 FILLER_19_300
*1158 FILLER_19_312
*1159 FILLER_19_332
*1160 FILLER_19_337
*1161 FILLER_19_45
*1162 FILLER_19_53
*1163 FILLER_19_57
*1164 FILLER_19_61
*1165 FILLER_19_65
*1166 FILLER_19_7
*1167 FILLER_19_73
*1168 FILLER_19_85
*1169 FILLER_19_93
*1170 FILLER_1_105
*1171 FILLER_1_111
*1172 FILLER_1_113
*1173 FILLER_1_121
*1174 FILLER_1_130
*1175 FILLER_1_142
*1176 FILLER_1_15
*1177 FILLER_1_154
*1178 FILLER_1_166
*1179 FILLER_1_169
*1180 FILLER_1_178
*1181 FILLER_1_190
*1182 FILLER_1_202
*1183 FILLER_1_214
*1184 FILLER_1_220
*1185 FILLER_1_225
*1186 FILLER_1_235
*1187 FILLER_1_247
*1188 FILLER_1_259
*1189 FILLER_1_27
*1190 FILLER_1_271
*1191 FILLER_1_279
*1192 FILLER_1_281
*1193 FILLER_1_290
*1194 FILLER_1_3
*1195 FILLER_1_302
*1196 FILLER_1_31
*1197 FILLER_1_314
*1198 FILLER_1_326
*1199 FILLER_1_334
*1200 FILLER_1_337
*1201 FILLER_1_37
*1202 FILLER_1_49
*1203 FILLER_1_55
*1204 FILLER_1_57
*1205 FILLER_1_69
*1206 FILLER_1_81
*1207 FILLER_1_93
*1208 FILLER_20_118
*1209 FILLER_20_127
*1210 FILLER_20_138
*1211 FILLER_20_141
*1212 FILLER_20_145
*1213 FILLER_20_15
*1214 FILLER_20_155
*1215 FILLER_20_162
*1216 FILLER_20_170
*1217 FILLER_20_181
*1218 FILLER_20_194
*1219 FILLER_20_197
*1220 FILLER_20_205
*1221 FILLER_20_225
*1222 FILLER_20_237
*1223 FILLER_20_241
*1224 FILLER_20_249
*1225 FILLER_20_253
*1226 FILLER_20_26
*1227 FILLER_20_261
*1228 FILLER_20_274
*1229 FILLER_20_278
*1230 FILLER_20_288
*1231 FILLER_20_29
*1232 FILLER_20_296
*1233 FILLER_20_3
*1234 FILLER_20_306
*1235 FILLER_20_309
*1236 FILLER_20_327
*1237 FILLER_20_33
*1238 FILLER_20_334
*1239 FILLER_20_40
*1240 FILLER_20_46
*1241 FILLER_20_50
*1242 FILLER_20_62
*1243 FILLER_20_74
*1244 FILLER_20_82
*1245 FILLER_20_85
*1246 FILLER_20_91
*1247 FILLER_20_99
*1248 FILLER_21_106
*1249 FILLER_21_113
*1250 FILLER_21_120
*1251 FILLER_21_128
*1252 FILLER_21_135
*1253 FILLER_21_147
*1254 FILLER_21_15
*1255 FILLER_21_155
*1256 FILLER_21_162
*1257 FILLER_21_169
*1258 FILLER_21_173
*1259 FILLER_21_177
*1260 FILLER_21_197
*1261 FILLER_21_204
*1262 FILLER_21_215
*1263 FILLER_21_222
*1264 FILLER_21_225
*1265 FILLER_21_243
*1266 FILLER_21_260
*1267 FILLER_21_268
*1268 FILLER_21_27
*1269 FILLER_21_277
*1270 FILLER_21_281
*1271 FILLER_21_292
*1272 FILLER_21_299
*1273 FILLER_21_3
*1274 FILLER_21_303
*1275 FILLER_21_312
*1276 FILLER_21_332
*1277 FILLER_21_337
*1278 FILLER_21_47
*1279 FILLER_21_55
*1280 FILLER_21_57
*1281 FILLER_21_67
*1282 FILLER_21_7
*1283 FILLER_21_76
*1284 FILLER_21_86
*1285 FILLER_21_96
*1286 FILLER_22_103
*1287 FILLER_22_113
*1288 FILLER_22_123
*1289 FILLER_22_131
*1290 FILLER_22_137
*1291 FILLER_22_14
*1292 FILLER_22_141
*1293 FILLER_22_152
*1294 FILLER_22_160
*1295 FILLER_22_168
*1296 FILLER_22_188
*1297 FILLER_22_197
*1298 FILLER_22_202
*1299 FILLER_22_210
*1300 FILLER_22_219
*1301 FILLER_22_227
*1302 FILLER_22_235
*1303 FILLER_22_245
*1304 FILLER_22_251
*1305 FILLER_22_253
*1306 FILLER_22_26
*1307 FILLER_22_261
*1308 FILLER_22_268
*1309 FILLER_22_279
*1310 FILLER_22_288
*1311 FILLER_22_29
*1312 FILLER_22_297
*1313 FILLER_22_3
*1314 FILLER_22_306
*1315 FILLER_22_309
*1316 FILLER_22_316
*1317 FILLER_22_323
*1318 FILLER_22_331
*1319 FILLER_22_335
*1320 FILLER_22_49
*1321 FILLER_22_53
*1322 FILLER_22_59
*1323 FILLER_22_79
*1324 FILLER_22_83
*1325 FILLER_22_85
*1326 FILLER_23_105
*1327 FILLER_23_111
*1328 FILLER_23_113
*1329 FILLER_23_123
*1330 FILLER_23_13
*1331 FILLER_23_133
*1332 FILLER_23_145
*1333 FILLER_23_156
*1334 FILLER_23_166
*1335 FILLER_23_169
*1336 FILLER_23_183
*1337 FILLER_23_203
*1338 FILLER_23_215
*1339 FILLER_23_222
*1340 FILLER_23_225
*1341 FILLER_23_235
*1342 FILLER_23_241
*1343 FILLER_23_258
*1344 FILLER_23_26
*1345 FILLER_23_270
*1346 FILLER_23_278
*1347 FILLER_23_281
*1348 FILLER_23_290
*1349 FILLER_23_297
*1350 FILLER_23_3
*1351 FILLER_23_309
*1352 FILLER_23_315
*1353 FILLER_23_332
*1354 FILLER_23_337
*1355 FILLER_23_35
*1356 FILLER_23_47
*1357 FILLER_23_52
*1358 FILLER_23_57
*1359 FILLER_23_67
*1360 FILLER_23_75
*1361 FILLER_23_85
*1362 FILLER_23_9
*1363 FILLER_24_111
*1364 FILLER_24_13
*1365 FILLER_24_133
*1366 FILLER_24_139
*1367 FILLER_24_141
*1368 FILLER_24_152
*1369 FILLER_24_163
*1370 FILLER_24_173
*1371 FILLER_24_193
*1372 FILLER_24_197
*1373 FILLER_24_205
*1374 FILLER_24_215
*1375 FILLER_24_230
*1376 FILLER_24_241
*1377 FILLER_24_250
*1378 FILLER_24_253
*1379 FILLER_24_26
*1380 FILLER_24_274
*1381 FILLER_24_289
*1382 FILLER_24_29
*1383 FILLER_24_297
*1384 FILLER_24_3
*1385 FILLER_24_306
*1386 FILLER_24_309
*1387 FILLER_24_328
*1388 FILLER_24_335
*1389 FILLER_24_36
*1390 FILLER_24_56
*1391 FILLER_24_7
*1392 FILLER_24_76
*1393 FILLER_24_85
*1394 FILLER_24_98
*1395 FILLER_25_110
*1396 FILLER_25_113
*1397 FILLER_25_117
*1398 FILLER_25_124
*1399 FILLER_25_132
*1400 FILLER_25_14
*1401 FILLER_25_149
*1402 FILLER_25_157
*1403 FILLER_25_166
*1404 FILLER_25_169
*1405 FILLER_25_181
*1406 FILLER_25_195
*1407 FILLER_25_205
*1408 FILLER_25_212
*1409 FILLER_25_222
*1410 FILLER_25_225
*1411 FILLER_25_243
*1412 FILLER_25_25
*1413 FILLER_25_255
*1414 FILLER_25_270
*1415 FILLER_25_278
*1416 FILLER_25_281
*1417 FILLER_25_294
*1418 FILLER_25_3
*1419 FILLER_25_306
*1420 FILLER_25_314
*1421 FILLER_25_33
*1422 FILLER_25_331
*1423 FILLER_25_335
*1424 FILLER_25_337
*1425 FILLER_25_51
*1426 FILLER_25_55
*1427 FILLER_25_57
*1428 FILLER_25_68
*1429 FILLER_25_76
*1430 FILLER_25_83
*1431 FILLER_25_98
*1432 FILLER_26_103
*1433 FILLER_26_116
*1434 FILLER_26_128
*1435 FILLER_26_137
*1436 FILLER_26_14
*1437 FILLER_26_141
*1438 FILLER_26_145
*1439 FILLER_26_157
*1440 FILLER_26_167
*1441 FILLER_26_171
*1442 FILLER_26_177
*1443 FILLER_26_193
*1444 FILLER_26_197
*1445 FILLER_26_201
*1446 FILLER_26_207
*1447 FILLER_26_213
*1448 FILLER_26_218
*1449 FILLER_26_225
*1450 FILLER_26_240
*1451 FILLER_26_244
*1452 FILLER_26_250
*1453 FILLER_26_253
*1454 FILLER_26_26
*1455 FILLER_26_262
*1456 FILLER_26_269
*1457 FILLER_26_279
*1458 FILLER_26_29
*1459 FILLER_26_292
*1460 FILLER_26_3
*1461 FILLER_26_306
*1462 FILLER_26_309
*1463 FILLER_26_319
*1464 FILLER_26_326
*1465 FILLER_26_33
*1466 FILLER_26_333
*1467 FILLER_26_337
*1468 FILLER_26_37
*1469 FILLER_26_57
*1470 FILLER_26_64
*1471 FILLER_26_68
*1472 FILLER_26_73
*1473 FILLER_26_82
*1474 FILLER_26_85
*1475 FILLER_27_104
*1476 FILLER_27_113
*1477 FILLER_27_119
*1478 FILLER_27_123
*1479 FILLER_27_14
*1480 FILLER_27_140
*1481 FILLER_27_155
*1482 FILLER_27_166
*1483 FILLER_27_169
*1484 FILLER_27_187
*1485 FILLER_27_196
*1486 FILLER_27_204
*1487 FILLER_27_21
*1488 FILLER_27_212
*1489 FILLER_27_222
*1490 FILLER_27_225
*1491 FILLER_27_233
*1492 FILLER_27_237
*1493 FILLER_27_254
*1494 FILLER_27_264
*1495 FILLER_27_273
*1496 FILLER_27_279
*1497 FILLER_27_281
*1498 FILLER_27_289
*1499 FILLER_27_3
*1500 FILLER_27_303
*1501 FILLER_27_310
*1502 FILLER_27_314
*1503 FILLER_27_33
*1504 FILLER_27_331
*1505 FILLER_27_335
*1506 FILLER_27_337
*1507 FILLER_27_45
*1508 FILLER_27_52
*1509 FILLER_27_57
*1510 FILLER_27_65
*1511 FILLER_27_71
*1512 FILLER_27_78
*1513 FILLER_27_90
*1514 FILLER_27_98
*1515 FILLER_28_105
*1516 FILLER_28_111
*1517 FILLER_28_115
*1518 FILLER_28_122
*1519 FILLER_28_13
*1520 FILLER_28_135
*1521 FILLER_28_139
*1522 FILLER_28_141
*1523 FILLER_28_159
*1524 FILLER_28_175
*1525 FILLER_28_188
*1526 FILLER_28_197
*1527 FILLER_28_211
*1528 FILLER_28_232
*1529 FILLER_28_247
*1530 FILLER_28_25
*1531 FILLER_28_251
*1532 FILLER_28_253
*1533 FILLER_28_261
*1534 FILLER_28_271
*1535 FILLER_28_278
*1536 FILLER_28_29
*1537 FILLER_28_291
*1538 FILLER_28_295
*1539 FILLER_28_3
*1540 FILLER_28_302
*1541 FILLER_28_309
*1542 FILLER_28_333
*1543 FILLER_28_337
*1544 FILLER_28_53
*1545 FILLER_28_65
*1546 FILLER_28_69
*1547 FILLER_28_7
*1548 FILLER_28_73
*1549 FILLER_28_82
*1550 FILLER_28_85
*1551 FILLER_28_96
*1552 FILLER_29_110
*1553 FILLER_29_113
*1554 FILLER_29_130
*1555 FILLER_29_142
*1556 FILLER_29_149
*1557 FILLER_29_158
*1558 FILLER_29_166
*1559 FILLER_29_169
*1560 FILLER_29_187
*1561 FILLER_29_19
*1562 FILLER_29_196
*1563 FILLER_29_208
*1564 FILLER_29_222
*1565 FILLER_29_225
*1566 FILLER_29_233
*1567 FILLER_29_241
*1568 FILLER_29_245
*1569 FILLER_29_257
*1570 FILLER_29_263
*1571 FILLER_29_272
*1572 FILLER_29_281
*1573 FILLER_29_290
*1574 FILLER_29_3
*1575 FILLER_29_302
*1576 FILLER_29_32
*1577 FILLER_29_322
*1578 FILLER_29_331
*1579 FILLER_29_335
*1580 FILLER_29_337
*1581 FILLER_29_52
*1582 FILLER_29_57
*1583 FILLER_29_62
*1584 FILLER_29_74
*1585 FILLER_29_91
*1586 FILLER_29_99
*1587 FILLER_2_106
*1588 FILLER_2_118
*1589 FILLER_2_122
*1590 FILLER_2_129
*1591 FILLER_2_137
*1592 FILLER_2_141
*1593 FILLER_2_149
*1594 FILLER_2_15
*1595 FILLER_2_158
*1596 FILLER_2_170
*1597 FILLER_2_177
*1598 FILLER_2_189
*1599 FILLER_2_195
*1600 FILLER_2_197
*1601 FILLER_2_209
*1602 FILLER_2_215
*1603 FILLER_2_224
*1604 FILLER_2_236
*1605 FILLER_2_245
*1606 FILLER_2_251
*1607 FILLER_2_253
*1608 FILLER_2_261
*1609 FILLER_2_269
*1610 FILLER_2_27
*1611 FILLER_2_281
*1612 FILLER_2_29
*1613 FILLER_2_293
*1614 FILLER_2_3
*1615 FILLER_2_304
*1616 FILLER_2_309
*1617 FILLER_2_321
*1618 FILLER_2_33
*1619 FILLER_2_333
*1620 FILLER_2_337
*1621 FILLER_2_42
*1622 FILLER_2_54
*1623 FILLER_2_71
*1624 FILLER_2_83
*1625 FILLER_2_85
*1626 FILLER_2_97
*1627 FILLER_30_108
*1628 FILLER_30_11
*1629 FILLER_30_116
*1630 FILLER_30_124
*1631 FILLER_30_128
*1632 FILLER_30_134
*1633 FILLER_30_141
*1634 FILLER_30_152
*1635 FILLER_30_159
*1636 FILLER_30_165
*1637 FILLER_30_174
*1638 FILLER_30_187
*1639 FILLER_30_194
*1640 FILLER_30_197
*1641 FILLER_30_207
*1642 FILLER_30_21
*1643 FILLER_30_231
*1644 FILLER_30_243
*1645 FILLER_30_250
*1646 FILLER_30_253
*1647 FILLER_30_27
*1648 FILLER_30_271
*1649 FILLER_30_278
*1650 FILLER_30_29
*1651 FILLER_30_290
*1652 FILLER_30_296
*1653 FILLER_30_3
*1654 FILLER_30_305
*1655 FILLER_30_309
*1656 FILLER_30_319
*1657 FILLER_30_328
*1658 FILLER_30_335
*1659 FILLER_30_47
*1660 FILLER_30_59
*1661 FILLER_30_70
*1662 FILLER_30_82
*1663 FILLER_30_85
*1664 FILLER_30_95
*1665 FILLER_31_107
*1666 FILLER_31_111
*1667 FILLER_31_113
*1668 FILLER_31_122
*1669 FILLER_31_135
*1670 FILLER_31_143
*1671 FILLER_31_16
*1672 FILLER_31_160
*1673 FILLER_31_169
*1674 FILLER_31_179
*1675 FILLER_31_195
*1676 FILLER_31_203
*1677 FILLER_31_21
*1678 FILLER_31_213
*1679 FILLER_31_222
*1680 FILLER_31_225
*1681 FILLER_31_232
*1682 FILLER_31_241
*1683 FILLER_31_248
*1684 FILLER_31_254
*1685 FILLER_31_260
*1686 FILLER_31_268
*1687 FILLER_31_274
*1688 FILLER_31_278
*1689 FILLER_31_281
*1690 FILLER_31_296
*1691 FILLER_31_3
*1692 FILLER_31_308
*1693 FILLER_31_314
*1694 FILLER_31_331
*1695 FILLER_31_335
*1696 FILLER_31_337
*1697 FILLER_31_34
*1698 FILLER_31_40
*1699 FILLER_31_44
*1700 FILLER_31_51
*1701 FILLER_31_55
*1702 FILLER_31_57
*1703 FILLER_31_67
*1704 FILLER_31_78
*1705 FILLER_31_8
*1706 FILLER_31_98
*1707 FILLER_32_102
*1708 FILLER_32_122
*1709 FILLER_32_138
*1710 FILLER_32_141
*1711 FILLER_32_159
*1712 FILLER_32_16
*1713 FILLER_32_167
*1714 FILLER_32_185
*1715 FILLER_32_194
*1716 FILLER_32_197
*1717 FILLER_32_204
*1718 FILLER_32_212
*1719 FILLER_32_229
*1720 FILLER_32_237
*1721 FILLER_32_241
*1722 FILLER_32_248