*SPEF "ieee 1481-1999"
*DESIGN "tt_um_urish_dffram"
*DATE "11:11:11 Fri 11 11, 1111"
*VENDOR "OpenRCX"
*PROGRAM "Parallel Extraction"
*VERSION "1.0"
*DESIGN_FLOW "NAME_SCOPE LOCAL" "PIN_CAP NONE"
*DIVIDER /
*DELIMITER :
*BUS_DELIMITER []
*T_UNIT 1 NS
*C_UNIT 1 PF
*R_UNIT 1 OHM
*L_UNIT 1 HENRY

*NAME_MAP
*1 clk
*2 ena
*3 rst_n
*4 ui_in[0]
*5 ui_in[1]
*6 ui_in[2]
*7 ui_in[3]
*8 ui_in[4]
*9 ui_in[5]
*10 ui_in[6]
*11 ui_in[7]
*12 uio_in[0]
*13 uio_in[1]
*14 uio_in[2]
*15 uio_in[3]
*16 uio_in[4]
*17 uio_in[5]
*18 uio_in[6]
*19 uio_in[7]
*20 net18
*21 net19
*22 net20
*23 net21
*24 net22
*25 net23
*26 net24
*27 net25
*28 net26
*29 net27
*30 net28
*31 net29
*32 net30
*33 net31
*34 net32
*35 net33
*36 uo_out[0]
*37 uo_out[1]
*38 uo_out[2]
*39 uo_out[3]
*40 uo_out[4]
*41 uo_out[5]
*42 uo_out[6]
*43 uo_out[7]
*46 Di0\[0\]
*47 Di0\[10\]
*48 Di0\[11\]
*49 Di0\[12\]
*50 Di0\[13\]
*51 Di0\[14\]
*52 Di0\[15\]
*53 Di0\[16\]
*54 Di0\[17\]
*55 Di0\[18\]
*56 Di0\[19\]
*57 Di0\[1\]
*58 Di0\[20\]
*59 Di0\[21\]
*60 Di0\[22\]
*61 Di0\[23\]
*62 Di0\[24\]
*63 Di0\[25\]
*64 Di0\[26\]
*65 Di0\[27\]
*66 Di0\[28\]
*67 Di0\[29\]
*68 Di0\[2\]
*69 Di0\[30\]
*70 Di0\[31\]
*71 Di0\[3\]
*72 Di0\[4\]
*73 Di0\[5\]
*74 Di0\[6\]
*75 Di0\[7\]
*76 Di0\[8\]
*77 Di0\[9\]
*78 Do0\[0\]
*79 Do0\[10\]
*80 Do0\[11\]
*81 Do0\[12\]
*82 Do0\[13\]
*83 Do0\[14\]
*84 Do0\[15\]
*85 Do0\[16\]
*86 Do0\[17\]
*87 Do0\[18\]
*88 Do0\[19\]
*89 Do0\[1\]
*90 Do0\[20\]
*91 Do0\[21\]
*92 Do0\[22\]
*93 Do0\[23\]
*94 Do0\[24\]
*95 Do0\[25\]
*96 Do0\[26\]
*97 Do0\[27\]
*98 Do0\[28\]
*99 Do0\[29\]
*100 Do0\[2\]
*101 Do0\[30\]
*102 Do0\[31\]
*103 Do0\[3\]
*104 Do0\[4\]
*105 Do0\[5\]
*106 Do0\[6\]
*107 Do0\[7\]
*108 Do0\[8\]
*109 Do0\[9\]
*110 WE0
*111 WE1
*112 WE2
*113 WE3
*114 _000_
*115 _001_
*116 _002_
*117 _003_
*118 _004_
*119 _005_
*120 _006_
*121 _007_
*122 _008_
*123 _009_
*124 _010_
*125 _011_
*126 _012_
*127 _013_
*128 _014_
*129 _015_
*130 _016_
*131 _017_
*132 _018_
*133 _019_
*134 _020_
*135 _021_
*136 _022_
*137 _023_
*138 _024_
*139 _025_
*140 _026_
*141 _027_
*142 _028_
*143 _029_
*144 _030_
*145 _031_
*146 _032_
*147 _033_
*148 _034_
*149 _035_
*150 _036_
*151 _037_
*152 _038_
*153 _039_
*154 _040_
*155 _041_
*156 _042_
*157 _043_
*158 _044_
*159 clknet_0_clk
*160 clknet_1_0__leaf_clk
*161 clknet_1_1__leaf_clk
*162 net1
*163 net10
*164 net11
*165 net12
*166 net13
*167 net14
*168 net15
*169 net16
*170 net17
*171 net2
*172 net3
*173 net4
*174 net5
*175 net6
*176 net7
*177 net8
*178 net9
*179 out_bit_index\[3\]
*180 out_bit_index\[4\]
*181 ANTENNA_1
*182 ANTENNA_10
*183 ANTENNA_11
*184 ANTENNA_12
*185 ANTENNA_13
*186 ANTENNA_14
*187 ANTENNA_15
*188 ANTENNA_16
*189 ANTENNA_17
*190 ANTENNA_18
*191 ANTENNA_19
*192 ANTENNA_2
*193 ANTENNA_20
*194 ANTENNA_21
*195 ANTENNA_22
*196 ANTENNA_23
*197 ANTENNA_24
*198 ANTENNA_25
*199 ANTENNA_26
*200 ANTENNA_27
*201 ANTENNA_28
*202 ANTENNA_29
*203 ANTENNA_3
*204 ANTENNA_30
*205 ANTENNA_31
*206 ANTENNA_32
*207 ANTENNA_33
*208 ANTENNA_34
*209 ANTENNA_35
*210 ANTENNA_36
*211 ANTENNA_37
*212 ANTENNA_38
*213 ANTENNA_39
*214 ANTENNA_4
*215 ANTENNA_40
*216 ANTENNA_41
*217 ANTENNA_42
*218 ANTENNA_5
*219 ANTENNA_6
*220 ANTENNA_7
*221 ANTENNA_8
*222 ANTENNA_9
*223 FILLER_0_1005
*224 FILLER_0_1009
*225 FILLER_0_1021
*226 FILLER_0_1033
*227 FILLER_0_1037
*228 FILLER_0_1049
*229 FILLER_0_1061
*230 FILLER_0_1065
*231 FILLER_0_1077
*232 FILLER_0_1089
*233 FILLER_0_109
*234 FILLER_0_1093
*235 FILLER_0_1105
*236 FILLER_0_1117
*237 FILLER_0_1121
*238 FILLER_0_113
*239 FILLER_0_1133
*240 FILLER_0_1145
*241 FILLER_0_1149
*242 FILLER_0_1161
*243 FILLER_0_1173
*244 FILLER_0_1177
*245 FILLER_0_1189
*246 FILLER_0_1201
*247 FILLER_0_1205
*248 FILLER_0_1217
*249 FILLER_0_1229
*250 FILLER_0_1233
*251 FILLER_0_1245
*252 FILLER_0_125
*253 FILLER_0_1257
*254 FILLER_0_1261
*255 FILLER_0_1273
*256 FILLER_0_1285
*257 FILLER_0_1289
*258 FILLER_0_1301
*259 FILLER_0_1313
*260 FILLER_0_1317
*261 FILLER_0_1329
*262 FILLER_0_1341
*263 FILLER_0_1345
*264 FILLER_0_1357
*265 FILLER_0_1369
*266 FILLER_0_137
*267 FILLER_0_1373
*268 FILLER_0_1385
*269 FILLER_0_1397
*270 FILLER_0_1401
*271 FILLER_0_141
*272 FILLER_0_1413
*273 FILLER_0_1425
*274 FILLER_0_1429
*275 FILLER_0_1441
*276 FILLER_0_1449
*277 FILLER_0_15
*278 FILLER_0_153
*279 FILLER_0_165
*280 FILLER_0_169
*281 FILLER_0_181
*282 FILLER_0_193
*283 FILLER_0_197
*284 FILLER_0_209
*285 FILLER_0_221
*286 FILLER_0_225
*287 FILLER_0_237
*288 FILLER_0_249
*289 FILLER_0_253
*290 FILLER_0_265
*291 FILLER_0_27
*292 FILLER_0_277
*293 FILLER_0_281
*294 FILLER_0_29
*295 FILLER_0_293
*296 FILLER_0_3
*297 FILLER_0_305
*298 FILLER_0_309
*299 FILLER_0_321
*300 FILLER_0_333
*301 FILLER_0_337
*302 FILLER_0_349
*303 FILLER_0_361
*304 FILLER_0_365
*305 FILLER_0_377
*306 FILLER_0_389
*307 FILLER_0_393
*308 FILLER_0_405
*309 FILLER_0_41
*310 FILLER_0_417
*311 FILLER_0_421
*312 FILLER_0_433
*313 FILLER_0_445
*314 FILLER_0_449
*315 FILLER_0_461
*316 FILLER_0_473
*317 FILLER_0_477
*318 FILLER_0_489
*319 FILLER_0_501
*320 FILLER_0_505
*321 FILLER_0_517
*322 FILLER_0_529
*323 FILLER_0_53
*324 FILLER_0_533
*325 FILLER_0_545
*326 FILLER_0_557
*327 FILLER_0_561
*328 FILLER_0_57
*329 FILLER_0_573
*330 FILLER_0_585
*331 FILLER_0_589
*332 FILLER_0_601
*333 FILLER_0_613
*334 FILLER_0_617
*335 FILLER_0_629
*336 FILLER_0_641
*337 FILLER_0_645
*338 FILLER_0_657
*339 FILLER_0_669
*340 FILLER_0_673
*341 FILLER_0_685
*342 FILLER_0_69
*343 FILLER_0_697
*344 FILLER_0_701
*345 FILLER_0_713
*346 FILLER_0_725
*347 FILLER_0_729
*348 FILLER_0_741
*349 FILLER_0_753
*350 FILLER_0_757
*351 FILLER_0_769
*352 FILLER_0_781
*353 FILLER_0_785
*354 FILLER_0_797
*355 FILLER_0_809
*356 FILLER_0_81
*357 FILLER_0_813
*358 FILLER_0_825
*359 FILLER_0_837
*360 FILLER_0_841
*361 FILLER_0_85
*362 FILLER_0_853
*363 FILLER_0_865
*364 FILLER_0_869
*365 FILLER_0_881
*366 FILLER_0_893
*367 FILLER_0_897
*368 FILLER_0_909
*369 FILLER_0_921
*370 FILLER_0_925
*371 FILLER_0_937
*372 FILLER_0_949
*373 FILLER_0_953
*374 FILLER_0_965
*375 FILLER_0_97
*376 FILLER_0_977
*377 FILLER_0_981
*378 FILLER_0_993
*379 FILLER_10_109
*380 FILLER_10_121
*381 FILLER_10_1226
*382 FILLER_10_1238
*383 FILLER_10_1250
*384 FILLER_10_1252
*385 FILLER_10_1264
*386 FILLER_10_1276
*387 FILLER_10_1288
*388 FILLER_10_1300
*389 FILLER_10_1306
*390 FILLER_10_1308
*391 FILLER_10_1320
*392 FILLER_10_133
*393 FILLER_10_1332
*394 FILLER_10_1344
*395 FILLER_10_1356
*396 FILLER_10_1362
*397 FILLER_10_1364
*398 FILLER_10_1376
*399 FILLER_10_1388
*400 FILLER_10_139
*401 FILLER_10_1400
*402 FILLER_10_141
*403 FILLER_10_1412
*404 FILLER_10_1418
*405 FILLER_10_1420
*406 FILLER_10_1432
*407 FILLER_10_1444
*408 FILLER_10_1450
*409 FILLER_10_15
*410 FILLER_10_153
*411 FILLER_10_165
*412 FILLER_10_177
*413 FILLER_10_189
*414 FILLER_10_195
*415 FILLER_10_197
*416 FILLER_10_209
*417 FILLER_10_221
*418 FILLER_10_233
*419 FILLER_10_245
*420 FILLER_10_251
*421 FILLER_10_253
*422 FILLER_10_265
*423 FILLER_10_27
*424 FILLER_10_277
*425 FILLER_10_289
*426 FILLER_10_29
*427 FILLER_10_3
*428 FILLER_10_301
*429 FILLER_10_41
*430 FILLER_10_53
*431 FILLER_10_65
*432 FILLER_10_77
*433 FILLER_10_83
*434 FILLER_10_85
*435 FILLER_10_97
*436 FILLER_11_105
*437 FILLER_11_111
*438 FILLER_11_113
*439 FILLER_11_1226
*440 FILLER_11_1238
*441 FILLER_11_125
*442 FILLER_11_1250
*443 FILLER_11_1262
*444 FILLER_11_1274
*445 FILLER_11_1278
*446 FILLER_11_1280
*447 FILLER_11_1292
*448 FILLER_11_1304
*449 FILLER_11_1316
*450 FILLER_11_1328
*451 FILLER_11_1334
*452 FILLER_11_1336
*453 FILLER_11_1348
*454 FILLER_11_1360
*455 FILLER_11_137
*456 FILLER_11_1372
*457 FILLER_11_1384
*458 FILLER_11_1390
*459 FILLER_11_1392
*460 FILLER_11_1404
*461 FILLER_11_1416
*462 FILLER_11_1428
*463 FILLER_11_1440
*464 FILLER_11_1446
*465 FILLER_11_1448
*466 FILLER_11_149
*467 FILLER_11_15
*468 FILLER_11_161
*469 FILLER_11_167
*470 FILLER_11_169
*471 FILLER_11_181
*472 FILLER_11_193
*473 FILLER_11_205
*474 FILLER_11_217
*475 FILLER_11_223
*476 FILLER_11_225
*477 FILLER_11_237
*478 FILLER_11_249
*479 FILLER_11_261
*480 FILLER_11_27
*481 FILLER_11_273
*482 FILLER_11_279
*483 FILLER_11_281
*484 FILLER_11_289
*485 FILLER_11_3
*486 FILLER_11_301
*487 FILLER_11_39
*488 FILLER_11_51
*489 FILLER_11_55
*490 FILLER_11_57
*491 FILLER_11_69
*492 FILLER_11_81
*493 FILLER_11_93
*494 FILLER_12_109
*495 FILLER_12_121
*496 FILLER_12_1226
*497 FILLER_12_1238
*498 FILLER_12_1250
*499 FILLER_12_1252
*500 FILLER_12_1264
*501 FILLER_12_1276
*502 FILLER_12_1288
*503 FILLER_12_1300
*504 FILLER_12_1306
*505 FILLER_12_1308
*506 FILLER_12_1320
*507 FILLER_12_133
*508 FILLER_12_1332
*509 FILLER_12_1344
*510 FILLER_12_1356
*511 FILLER_12_1362
*512 FILLER_12_1364
*513 FILLER_12_1376
*514 FILLER_12_1388
*515 FILLER_12_139
*516 FILLER_12_1400
*517 FILLER_12_141
*518 FILLER_12_1412
*519 FILLER_12_1418
*520 FILLER_12_1420
*521 FILLER_12_1432
*522 FILLER_12_1444
*523 FILLER_12_1450
*524 FILLER_12_15
*525 FILLER_12_153
*526 FILLER_12_165
*527 FILLER_12_177
*528 FILLER_12_189
*529 FILLER_12_195
*530 FILLER_12_197
*531 FILLER_12_209
*532 FILLER_12_221
*533 FILLER_12_233
*534 FILLER_12_245
*535 FILLER_12_251
*536 FILLER_12_253
*537 FILLER_12_265
*538 FILLER_12_27
*539 FILLER_12_277
*540 FILLER_12_285
*541 FILLER_12_29
*542 FILLER_12_298
*543 FILLER_12_3
*544 FILLER_12_302
*545 FILLER_12_41
*546 FILLER_12_53
*547 FILLER_12_65
*548 FILLER_12_77
*549 FILLER_12_83
*550 FILLER_12_85
*551 FILLER_12_97
*552 FILLER_13_105
*553 FILLER_13_111
*554 FILLER_13_113
*555 FILLER_13_1226
*556 FILLER_13_1238
*557 FILLER_13_125
*558 FILLER_13_1250
*559 FILLER_13_1262
*560 FILLER_13_1274
*561 FILLER_13_1278
*562 FILLER_13_1280
*563 FILLER_13_1292
*564 FILLER_13_1304
*565 FILLER_13_1316
*566 FILLER_13_1328
*567 FILLER_13_1334
*568 FILLER_13_1336
*569 FILLER_13_1348
*570 FILLER_13_1360
*571 FILLER_13_137
*572 FILLER_13_1372
*573 FILLER_13_1384
*574 FILLER_13_1390
*575 FILLER_13_1392
*576 FILLER_13_1404
*577 FILLER_13_1416
*578 FILLER_13_1428
*579 FILLER_13_1440
*580 FILLER_13_1446
*581 FILLER_13_1448
*582 FILLER_13_149
*583 FILLER_13_15
*584 FILLER_13_161
*585 FILLER_13_167
*586 FILLER_13_169
*587 FILLER_13_181
*588 FILLER_13_193
*589 FILLER_13_205
*590 FILLER_13_217
*591 FILLER_13_223
*592 FILLER_13_225
*593 FILLER_13_237
*594 FILLER_13_249
*595 FILLER_13_261
*596 FILLER_13_27
*597 FILLER_13_273
*598 FILLER_13_279
*599 FILLER_13_281
*600 FILLER_13_289
*601 FILLER_13_3
*602 FILLER_13_301
*603 FILLER_13_39
*604 FILLER_13_51
*605 FILLER_13_55
*606 FILLER_13_57
*607 FILLER_13_69
*608 FILLER_13_81
*609 FILLER_13_93
*610 FILLER_14_109
*611 FILLER_14_121
*612 FILLER_14_1226
*613 FILLER_14_1238
*614 FILLER_14_1250
*615 FILLER_14_1252
*616 FILLER_14_1264
*617 FILLER_14_1276
*618 FILLER_14_1288
*619 FILLER_14_1300
*620 FILLER_14_1306
*621 FILLER_14_1308
*622 FILLER_14_1320
*623 FILLER_14_133
*624 FILLER_14_1332
*625 FILLER_14_1344
*626 FILLER_14_1356
*627 FILLER_14_1362
*628 FILLER_14_1364
*629 FILLER_14_1376
*630 FILLER_14_1388
*631 FILLER_14_139
*632 FILLER_14_1400
*633 FILLER_14_141
*634 FILLER_14_1412
*635 FILLER_14_1418
*636 FILLER_14_1420
*637 FILLER_14_1432
*638 FILLER_14_1444
*639 FILLER_14_1450
*640 FILLER_14_15
*641 FILLER_14_153
*642 FILLER_14_165
*643 FILLER_14_177
*644 FILLER_14_189
*645 FILLER_14_195
*646 FILLER_14_197
*647 FILLER_14_209
*648 FILLER_14_221
*649 FILLER_14_233
*650 FILLER_14_245
*651 FILLER_14_251
*652 FILLER_14_253
*653 FILLER_14_265
*654 FILLER_14_27
*655 FILLER_14_271
*656 FILLER_14_275
*657 FILLER_14_29
*658 FILLER_14_293
*659 FILLER_14_3
*660 FILLER_14_301
*661 FILLER_14_41
*662 FILLER_14_53
*663 FILLER_14_65
*664 FILLER_14_77
*665 FILLER_14_83
*666 FILLER_14_85
*667 FILLER_14_97
*668 FILLER_15_105
*669 FILLER_15_111
*670 FILLER_15_113
*671 FILLER_15_1226
*672 FILLER_15_1238
*673 FILLER_15_125
*674 FILLER_15_1250
*675 FILLER_15_1262
*676 FILLER_15_1274
*677 FILLER_15_1278
*678 FILLER_15_1280
*679 FILLER_15_1292
*680 FILLER_15_1304
*681 FILLER_15_1316
*682 FILLER_15_1328
*683 FILLER_15_1334
*684 FILLER_15_1336
*685 FILLER_15_1348
*686 FILLER_15_1360
*687 FILLER_15_137
*688 FILLER_15_1372
*689 FILLER_15_1384
*690 FILLER_15_1390
*691 FILLER_15_1392
*692 FILLER_15_1404
*693 FILLER_15_1416
*694 FILLER_15_1428
*695 FILLER_15_1440
*696 FILLER_15_1446
*697 FILLER_15_1448
*698 FILLER_15_149
*699 FILLER_15_15
*700 FILLER_15_161
*701 FILLER_15_167
*702 FILLER_15_169
*703 FILLER_15_181
*704 FILLER_15_193
*705 FILLER_15_205
*706 FILLER_15_217
*707 FILLER_15_223
*708 FILLER_15_225
*709 FILLER_15_237
*710 FILLER_15_249
*711 FILLER_15_261
*712 FILLER_15_269
*713 FILLER_15_27
*714 FILLER_15_278
*715 FILLER_15_281
*716 FILLER_15_294
*717 FILLER_15_3
*718 FILLER_15_302
*719 FILLER_15_39
*720 FILLER_15_51
*721 FILLER_15_55
*722 FILLER_15_57
*723 FILLER_15_69
*724 FILLER_15_81
*725 FILLER_15_93
*726 FILLER_16_109
*727 FILLER_16_121
*728 FILLER_16_1226
*729 FILLER_16_1238
*730 FILLER_16_1250
*731 FILLER_16_1252
*732 FILLER_16_1264
*733 FILLER_16_1276
*734 FILLER_16_1288
*735 FILLER_16_1300
*736 FILLER_16_1306
*737 FILLER_16_1308
*738 FILLER_16_1320
*739 FILLER_16_133
*740 FILLER_16_1332
*741 FILLER_16_1344
*742 FILLER_16_1356
*743 FILLER_16_1362
*744 FILLER_16_1364
*745 FILLER_16_1376
*746 FILLER_16_1388
*747 FILLER_16_139
*748 FILLER_16_1400
*749 FILLER_16_141
*750 FILLER_16_1412
*751 FILLER_16_1418
*752 FILLER_16_1420
*753 FILLER_16_1432
*754 FILLER_16_1444
*755 FILLER_16_1450
*756 FILLER_16_15
*757 FILLER_16_153
*758 FILLER_16_165
*759 FILLER_16_177
*760 FILLER_16_189
*761 FILLER_16_195
*762 FILLER_16_197
*763 FILLER_16_209
*764 FILLER_16_217
*765 FILLER_16_224
*766 FILLER_16_236
*767 FILLER_16_248
*768 FILLER_16_253
*769 FILLER_16_261
*770 FILLER_16_27
*771 FILLER_16_273
*772 FILLER_16_279
*773 FILLER_16_287
*774 FILLER_16_29
*775 FILLER_16_299
*776 FILLER_16_3
*777 FILLER_16_41
*778 FILLER_16_53
*779 FILLER_16_65
*780 FILLER_16_77
*781 FILLER_16_83
*782 FILLER_16_85
*783 FILLER_16_97
*784 FILLER_17_105
*785 FILLER_17_111
*786 FILLER_17_113
*787 FILLER_17_1226
*788 FILLER_17_1238
*789 FILLER_17_125
*790 FILLER_17_1250
*791 FILLER_17_1262
*792 FILLER_17_1274
*793 FILLER_17_1278
*794 FILLER_17_1280
*795 FILLER_17_1292
*796 FILLER_17_1304
*797 FILLER_17_1316
*798 FILLER_17_1328
*799 FILLER_17_1334
*800 FILLER_17_1336
*801 FILLER_17_1348
*802 FILLER_17_1360
*803 FILLER_17_137
*804 FILLER_17_1372
*805 FILLER_17_1384
*806 FILLER_17_1390
*807 FILLER_17_1392
*808 FILLER_17_1404
*809 FILLER_17_1416
*810 FILLER_17_1428
*811 FILLER_17_1440
*812 FILLER_17_1446
*813 FILLER_17_1448
*814 FILLER_17_149
*815 FILLER_17_15
*816 FILLER_17_161
*817 FILLER_17_167
*818 FILLER_17_169
*819 FILLER_17_181
*820 FILLER_17_193
*821 FILLER_17_205
*822 FILLER_17_217
*823 FILLER_17_223
*824 FILLER_17_225
*825 FILLER_17_237
*826 FILLER_17_245
*827 FILLER_17_253
*828 FILLER_17_262
*829 FILLER_17_27
*830 FILLER_17_272
*831 FILLER_17_281
*832 FILLER_17_293
*833 FILLER_17_3
*834 FILLER_17_301
*835 FILLER_17_39
*836 FILLER_17_51
*837 FILLER_17_55
*838 FILLER_17_57
*839 FILLER_17_69
*840 FILLER_17_81
*841 FILLER_17_93
*842 FILLER_18_109
*843 FILLER_18_121
*844 FILLER_18_1226
*845 FILLER_18_1238
*846 FILLER_18_1250
*847 FILLER_18_1252
*848 FILLER_18_1264
*849 FILLER_18_1276
*850 FILLER_18_1288
*851 FILLER_18_1300
*852 FILLER_18_1306
*853 FILLER_18_1308
*854 FILLER_18_1320
*855 FILLER_18_133
*856 FILLER_18_1332
*857 FILLER_18_1344
*858 FILLER_18_1356
*859 FILLER_18_1362
*860 FILLER_18_1364
*861 FILLER_18_1376
*862 FILLER_18_1388
*863 FILLER_18_139
*864 FILLER_18_1400
*865 FILLER_18_141
*866 FILLER_18_1412
*867 FILLER_18_1418
*868 FILLER_18_1420
*869 FILLER_18_1432
*870 FILLER_18_1444
*871 FILLER_18_1450
*872 FILLER_18_15
*873 FILLER_18_153
*874 FILLER_18_165
*875 FILLER_18_177
*876 FILLER_18_189
*877 FILLER_18_195
*878 FILLER_18_197
*879 FILLER_18_209
*880 FILLER_18_221
*881 FILLER_18_233
*882 FILLER_18_245
*883 FILLER_18_251
*884 FILLER_18_253
*885 FILLER_18_265
*886 FILLER_18_269
*887 FILLER_18_27
*888 FILLER_18_277
*889 FILLER_18_289
*890 FILLER_18_29
*891 FILLER_18_297
*892 FILLER_18_3
*893 FILLER_18_41
*894 FILLER_18_53
*895 FILLER_18_65
*896 FILLER_18_77
*897 FILLER_18_83
*898 FILLER_18_85
*899 FILLER_18_97
*900 FILLER_19_105
*901 FILLER_19_111
*902 FILLER_19_113
*903 FILLER_19_1226
*904 FILLER_19_1238
*905 FILLER_19_125
*906 FILLER_19_1250
*907 FILLER_19_1262
*908 FILLER_19_1274
*909 FILLER_19_1278
*910 FILLER_19_1280
*911 FILLER_19_1292
*912 FILLER_19_1304
*913 FILLER_19_1316
*914 FILLER_19_1328
*915 FILLER_19_1334
*916 FILLER_19_1336
*917 FILLER_19_1348
*918 FILLER_19_1360
*919 FILLER_19_137
*920 FILLER_19_1372
*921 FILLER_19_1384
*922 FILLER_19_1390
*923 FILLER_19_1392
*924 FILLER_19_1404
*925 FILLER_19_1416
*926 FILLER_19_1428
*927 FILLER_19_1440
*928 FILLER_19_1446
*929 FILLER_19_1448
*930 FILLER_19_149
*931 FILLER_19_15
*932 FILLER_19_161
*933 FILLER_19_167
*934 FILLER_19_169
*935 FILLER_19_181
*936 FILLER_19_193
*937 FILLER_19_205
*938 FILLER_19_217
*939 FILLER_19_223
*940 FILLER_19_225
*941 FILLER_19_229
*942 FILLER_19_236
*943 FILLER_19_248
*944 FILLER_19_257
*945 FILLER_19_267
*946 FILLER_19_27
*947 FILLER_19_279
*948 FILLER_19_281
*949 FILLER_19_293
*950 FILLER_19_3
*951 FILLER_19_301
*952 FILLER_19_39
*953 FILLER_19_51
*954 FILLER_19_55
*955 FILLER_19_57
*956 FILLER_19_69
*957 FILLER_19_81
*958 FILLER_19_93
*959 FILLER_1_1001
*960 FILLER_1_1007
*961 FILLER_1_1009
*962 FILLER_1_1021
*963 FILLER_1_1033
*964 FILLER_1_1045
*965 FILLER_1_105
*966 FILLER_1_1057
*967 FILLER_1_1063
*968 FILLER_1_1065
*969 FILLER_1_1077
*970 FILLER_1_1089
*971 FILLER_1_1101
*972 FILLER_1_111
*973 FILLER_1_1113
*974 FILLER_1_1119
*975 FILLER_1_1121
*976 FILLER_1_113
*977 FILLER_1_1133
*978 FILLER_1_1145
*979 FILLER_1_1157
*980 FILLER_1_1169
*981 FILLER_1_1175
*982 FILLER_1_1177
*983 FILLER_1_1189
*984 FILLER_1_1201
*985 FILLER_1_1213
*986 FILLER_1_1225
*987 FILLER_1_1231
*988 FILLER_1_1233
*989 FILLER_1_1245
*990 FILLER_1_125
*991 FILLER_1_1257
*992 FILLER_1_1269
*993 FILLER_1_1281
*994 FILLER_1_1287
*995 FILLER_1_1289
*996 FILLER_1_1301
*997 FILLER_1_1313
*998 FILLER_1_1325
*999 FILLER_1_1337
*1000 FILLER_1_1343
*1001 FILLER_1_1345
*1002 FILLER_1_1357
*1003 FILLER_1_1369
*1004 FILLER_1_137
*1005 FILLER_1_1381
*1006 FILLER_1_1393
*1007 FILLER_1_1399
*1008 FILLER_1_1401
*1009 FILLER_1_1413
*1010 FILLER_1_1425
*1011 FILLER_1_1437
*1012 FILLER_1_1449
*1013 FILLER_1_149
*1014 FILLER_1_15
*1015 FILLER_1_161
*1016 FILLER_1_167
*1017 FILLER_1_169
*1018 FILLER_1_181
*1019 FILLER_1_193
*1020 FILLER_1_205
*1021 FILLER_1_217
*1022 FILLER_1_223
*1023 FILLER_1_225
*1024 FILLER_1_237
*1025 FILLER_1_249
*1026 FILLER_1_261
*1027 FILLER_1_27
*1028 FILLER_1_273
*1029 FILLER_1_279
*1030 FILLER_1_281
*1031 FILLER_1_293
*1032 FILLER_1_3
*1033 FILLER_1_305
*1034 FILLER_1_317
*1035 FILLER_1_329
*1036 FILLER_1_335
*1037 FILLER_1_337
*1038 FILLER_1_349
*1039 FILLER_1_361
*1040 FILLER_1_373
*1041 FILLER_1_385
*1042 FILLER_1_39
*1043 FILLER_1_391
*1044 FILLER_1_393
*1045 FILLER_1_405
*1046 FILLER_1_417
*1047 FILLER_1_429
*1048 FILLER_1_441
*1049 FILLER_1_447
*1050 FILLER_1_449
*1051 FILLER_1_461
*1052 FILLER_1_473
*1053 FILLER_1_485
*1054 FILLER_1_497
*1055 FILLER_1_503
*1056 FILLER_1_505
*1057 FILLER_1_51
*1058 FILLER_1_517
*1059 FILLER_1_529
*1060 FILLER_1_541
*1061 FILLER_1_55
*1062 FILLER_1_553
*1063 FILLER_1_559
*1064 FILLER_1_561
*1065 FILLER_1_57
*1066 FILLER_1_573
*1067 FILLER_1_585
*1068 FILLER_1_597
*1069 FILLER_1_609
*1070 FILLER_1_615
*1071 FILLER_1_617
*1072 FILLER_1_629
*1073 FILLER_1_641
*1074 FILLER_1_653
*1075 FILLER_1_665
*1076 FILLER_1_671
*1077 FILLER_1_673
*1078 FILLER_1_685
*1079 FILLER_1_69
*1080 FILLER_1_697
*1081 FILLER_1_709
*1082 FILLER_1_721
*1083 FILLER_1_727
*1084 FILLER_1_729
*1085 FILLER_1_741
*1086 FILLER_1_753
*1087 FILLER_1_765
*1088 FILLER_1_777
*1089 FILLER_1_783
*1090 FILLER_1_785
*1091 FILLER_1_797
*1092 FILLER_1_809
*1093 FILLER_1_81
*1094 FILLER_1_821
*1095 FILLER_1_833
*1096 FILLER_1_839
*1097 FILLER_1_841
*1098 FILLER_1_853
*1099 FILLER_1_865
*1100 FILLER_1_877
*1101 FILLER_1_889
*1102 FILLER_1_895
*1103 FILLER_1_897
*1104 FILLER_1_909
*1105 FILLER_1_921
*1106 FILLER_1_93
*1107 FILLER_1_933
*1108 FILLER_1_945
*1109 FILLER_1_951
*1110 FILLER_1_953
*1111 FILLER_1_965
*1112 FILLER_1_977
*1113 FILLER_1_989
*1114 FILLER_20_109
*1115 FILLER_20_121
*1116 FILLER_20_1226
*1117 FILLER_20_1238
*1118 FILLER_20_1250
*1119 FILLER_20_1252
*1120 FILLER_20_1264
*1121 FILLER_20_1276
*1122 FILLER_20_1288
*1123 FILLER_20_1300
*1124 FILLER_20_1306
*1125 FILLER_20_1308
*1126 FILLER_20_1320
*1127 FILLER_20_133
*1128 FILLER_20_1332
*1129 FILLER_20_1344
*1130 FILLER_20_1356
*1131 FILLER_20_1362
*1132 FILLER_20_1364
*1133 FILLER_20_1376
*1134 FILLER_20_1388
*1135 FILLER_20_139
*1136 FILLER_20_1400
*1137 FILLER_20_141
*1138 FILLER_20_1412
*1139 FILLER_20_1418
*1140 FILLER_20_1420
*1141 FILLER_20_1432
*1142 FILLER_20_1444
*1143 FILLER_20_1450
*1144 FILLER_20_15
*1145 FILLER_20_153
*1146 FILLER_20_165
*1147 FILLER_20_177
*1148 FILLER_20_189
*1149 FILLER_20_195
*1150 FILLER_20_197
*1151 FILLER_20_209
*1152 FILLER_20_221
*1153 FILLER_20_233
*1154 FILLER_20_245
*1155 FILLER_20_251
*1156 FILLER_20_253
*1157 FILLER_20_259
*1158 FILLER_20_267
*1159 FILLER_20_27
*1160 FILLER_20_275
*1161 FILLER_20_284
*1162 FILLER_20_29
*1163 FILLER_20_296
*1164 FILLER_20_3
*1165 FILLER_20_302
*1166 FILLER_20_41
*1167 FILLER_20_53
*1168 FILLER_20_65
*1169 FILLER_20_77
*1170 FILLER_20_83
*1171 FILLER_20_85
*1172 FILLER_20_97
*1173 FILLER_21_105
*1174 FILLER_21_111
*1175 FILLER_21_113
*1176 FILLER_21_1226
*1177 FILLER_21_1238
*1178 FILLER_21_125
*1179 FILLER_21_1250
*1180 FILLER_21_1262
*1181 FILLER_21_1274
*1182 FILLER_21_1278
*1183 FILLER_21_1280
*1184 FILLER_21_1292
*1185 FILLER_21_1304
*1186 FILLER_21_1316
*1187 FILLER_21_1328
*1188 FILLER_21_1334
*1189 FILLER_21_1336
*1190 FILLER_21_1348
*1191 FILLER_21_1360
*1192 FILLER_21_137
*1193 FILLER_21_1372
*1194 FILLER_21_1384
*1195 FILLER_21_1390
*1196 FILLER_21_1392
*1197 FILLER_21_1404
*1198 FILLER_21_1416
*1199 FILLER_21_1428
*1200 FILLER_21_1440
*1201 FILLER_21_1446
*1202 FILLER_21_1448
*1203 FILLER_21_149
*1204 FILLER_21_15
*1205 FILLER_21_161
*1206 FILLER_21_167
*1207 FILLER_21_169
*1208 FILLER_21_181
*1209 FILLER_21_193
*1210 FILLER_21_203
*1211 FILLER_21_215
*1212 FILLER_21_223
*1213 FILLER_21_225
*1214 FILLER_21_233
*1215 FILLER_21_241
*1216 FILLER_21_249
*1217 FILLER_21_257
*1218 FILLER_21_266
*1219 FILLER_21_27
*1220 FILLER_21_278
*1221 FILLER_21_281
*1222 FILLER_21_293
*1223 FILLER_21_3
*1224 FILLER_21_301
*1225 FILLER_21_39
*1226 FILLER_21_51
*1227 FILLER_21_55
*1228 FILLER_21_57
*1229 FILLER_21_69
*1230 FILLER_21_81
*1231 FILLER_21_93
*1232 FILLER_22_109
*1233 FILLER_22_121
*1234 FILLER_22_1226
*1235 FILLER_22_1238
*1236 FILLER_22_1250
*1237 FILLER_22_1252
*1238 FILLER_22_1264
*1239 FILLER_22_1276
*1240 FILLER_22_1288
*1241 FILLER_22_1300
*1242 FILLER_22_1306
*1243 FILLER_22_1308
*1244 FILLER_22_1320
*1245 FILLER_22_133
*1246 FILLER_22_1332
*1247 FILLER_22_1344
*1248 FILLER_22_1356
*1249 FILLER_22_1362
*1250 FILLER_22_1364
*1251 FILLER_22_1376
*1252 FILLER_22_1388
*1253 FILLER_22_139
*1254 FILLER_22_1400
*1255 FILLER_22_141
*1256 FILLER_22_1412
*1257 FILLER_22_1418
*1258 FILLER_22_1420
*1259 FILLER_22_1432
*1260 FILLER_22_1444
*1261 FILLER_22_1450
*1262 FILLER_22_15
*1263 FILLER_22_153
*1264 FILLER_22_165
*1265 FILLER_22_177
*1266 FILLER_22_189
*1267 FILLER_22_195
*1268 FILLER_22_197
*1269 FILLER_22_209
*1270 FILLER_22_221
*1271 FILLER_22_233
*1272 FILLER_22_239
*1273 FILLER_22_250
*1274 FILLER_22_253
*1275 FILLER_22_263
*1276 FILLER_22_27
*1277 FILLER_22_274
*1278 FILLER_22_286
*1279 FILLER_22_29
*1280 FILLER_22_298
*1281 FILLER_22_3
*1282 FILLER_22_302
*1283 FILLER_22_41
*1284 FILLER_22_53
*1285 FILLER_22_65
*1286 FILLER_22_77
*1287 FILLER_22_83
*1288 FILLER_22_85
*1289 FILLER_22_97
*1290 FILLER_23_105
*1291 FILLER_23_111
*1292 FILLER_23_113
*1293 FILLER_23_1226
*1294 FILLER_23_1238
*1295 FILLER_23_125
*1296 FILLER_23_1250
*1297 FILLER_23_1262
*1298 FILLER_23_1274
*1299 FILLER_23_1278
*1300 FILLER_23_1280
*1301 FILLER_23_1292
*1302 FILLER_23_1304
*1303 FILLER_23_1316
*1304 FILLER_23_1328
*1305 FILLER_23_1334
*1306 FILLER_23_1336
*1307 FILLER_23_1348
*1308 FILLER_23_1360
*1309 FILLER_23_137
*1310 FILLER_23_1372
*1311 FILLER_23_1384
*1312 FILLER_23_1390
*1313 FILLER_23_1392
*1314 FILLER_23_1404
*1315 FILLER_23_1416
*1316 FILLER_23_1428
*1317 FILLER_23_1440
*1318 FILLER_23_1446
*1319 FILLER_23_1448
*1320 FILLER_23_149
*1321 FILLER_23_15
*1322 FILLER_23_161
*1323 FILLER_23_167
*1324 FILLER_23_169
*1325 FILLER_23_181
*1326 FILLER_23_193
*1327 FILLER_23_205
*1328 FILLER_23_217
*1329 FILLER_23_223
*1330 FILLER_23_225
*1331 FILLER_23_237
*1332 FILLER_23_256
*1333 FILLER_23_267
*1334 FILLER_23_27
*1335 FILLER_23_279
*1336 FILLER_23_281
*1337 FILLER_23_293
*1338 FILLER_23_3
*1339 FILLER_23_301
*1340 FILLER_23_39
*1341 FILLER_23_51
*1342 FILLER_23_55
*1343 FILLER_23_57
*1344 FILLER_23_69
*1345 FILLER_23_81
*1346 FILLER_23_93
*1347 FILLER_24_109
*1348 FILLER_24_121
*1349 FILLER_24_1226
*1350 FILLER_24_1238
*1351 FILLER_24_1250
*1352 FILLER_24_1252
*1353 FILLER_24_1264
*1354 FILLER_24_1276
*1355 FILLER_24_1288
*1356 FILLER_24_1300
*1357 FILLER_24_1306
*1358 FILLER_24_1308
*1359 FILLER_24_1320
*1360 FILLER_24_133
*1361 FILLER_24_1332
*1362 FILLER_24_1344
*1363 FILLER_24_1356
*1364 FILLER_24_1362
*1365 FILLER_24_1364
*1366 FILLER_24_1376
*1367 FILLER_24_1388
*1368 FILLER_24_139
*1369 FILLER_24_1400
*1370 FILLER_24_141
*1371 FILLER_24_1412
*1372 FILLER_24_1418
*1373 FILLER_24_1420
*1374 FILLER_24_1432
*1375 FILLER_24_1444
*1376 FILLER_24_1450
*1377 FILLER_24_15
*1378 FILLER_24_153
*1379 FILLER_24_165
*1380 FILLER_24_177
*1381 FILLER_24_189
*1382 FILLER_24_195
*1383 FILLER_24_197
*1384 FILLER_24_209
*1385 FILLER_24_217
*1386 FILLER_24_226
*1387 FILLER_24_232
*1388 FILLER_24_240
*1389 FILLER_24_253
*1390 FILLER_24_261
*1391 FILLER_24_27
*1392 FILLER_24_270
*1393 FILLER_24_282
*1394 FILLER_24_29
*1395 FILLER_24_294
*1396 FILLER_24_3
*1397 FILLER_24_302
*1398 FILLER_24_41
*1399 FILLER_24_53
*1400 FILLER_24_65
*1401 FILLER_24_77
*1402 FILLER_24_83
*1403 FILLER_24_85
*1404 FILLER_24_97
*1405 FILLER_25_105
*1406 FILLER_25_111
*1407 FILLER_25_113
*1408 FILLER_25_1226
*1409 FILLER_25_1238
*1410 FILLER_25_125
*1411 FILLER_25_1250
*1412 FILLER_25_1262
*1413 FILLER_25_1274
*1414 FILLER_25_1278
*1415 FILLER_25_1280
*1416 FILLER_25_1292
*1417 FILLER_25_1304
*1418 FILLER_25_1316
*1419 FILLER_25_1328
*1420 FILLER_25_1334
*1421 FILLER_25_1336
*1422 FILLER_25_1348
*1423 FILLER_25_1360
*1424 FILLER_25_137
*1425 FILLER_25_1372
*1426 FILLER_25_1384
*1427 FILLER_25_1390
*1428 FILLER_25_1392
*1429 FILLER_25_1404
*1430 FILLER_25_1416
*1431 FILLER_25_1428
*1432 FILLER_25_1440
*1433 FILLER_25_1446
*1434 FILLER_25_1448
*1435 FILLER_25_149
*1436 FILLER_25_15
*1437 FILLER_25_161
*1438 FILLER_25_167
*1439 FILLER_25_169
*1440 FILLER_25_181
*1441 FILLER_25_193
*1442 FILLER_25_205
*1443 FILLER_25_217
*1444 FILLER_25_223
*1445 FILLER_25_225
*1446 FILLER_25_237
*1447 FILLER_25_249
*1448 FILLER_25_267
*1449 FILLER_25_27
*1450 FILLER_25_279
*1451 FILLER_25_281
*1452 FILLER_25_293
*1453 FILLER_25_3
*1454 FILLER_25_301
*1455 FILLER_25_39
*1456 FILLER_25_51
*1457 FILLER_25_55
*1458 FILLER_25_57
*1459 FILLER_25_69
*1460 FILLER_25_81
*1461 FILLER_25_93
*1462 FILLER_26_109
*1463 FILLER_26_121
*1464 FILLER_26_1226
*1465 FILLER_26_1238
*1466 FILLER_26_1250
*1467 FILLER_26_1252
*1468 FILLER_26_1264
*1469 FILLER_26_1276
*1470 FILLER_26_1288
*1471 FILLER_26_1300
*1472 FILLER_26_1306
*1473 FILLER_26_1308
*1474 FILLER_26_1320
*1475 FILLER_26_133
*1476 FILLER_26_1332
*1477 FILLER_26_1344
*1478 FILLER_26_1356
*1479 FILLER_26_1362
*1480 FILLER_26_1364
*1481 FILLER_26_1376
*1482 FILLER_26_1388
*1483 FILLER_26_139
*1484 FILLER_26_1400
*1485 FILLER_26_141
*1486 FILLER_26_1412
*1487 FILLER_26_1418
*1488 FILLER_26_1420
*1489 FILLER_26_1432
*1490 FILLER_26_1444
*1491 FILLER_26_1450
*1492 FILLER_26_15
*1493 FILLER_26_153
*1494 FILLER_26_165
*1495 FILLER_26_177
*1496 FILLER_26_189
*1497 FILLER_26_195
*1498 FILLER_26_197
*1499 FILLER_26_209
*1500 FILLER_26_221
*1501 FILLER_26_233
*1502 FILLER_26_244
*1503 FILLER_26_253
*1504 FILLER_26_261
*1505 FILLER_26_27
*1506 FILLER_26_271
*1507 FILLER_26_283
*1508 FILLER_26_29
*1509 FILLER_26_295
*1510 FILLER_26_3
*1511 FILLER_26_41
*1512 FILLER_26_53
*1513 FILLER_26_65
*1514 FILLER_26_77
*1515 FILLER_26_83
*1516 FILLER_26_85
*1517 FILLER_26_97
*1518 FILLER_27_105
*1519 FILLER_27_111
*1520 FILLER_27_113
*1521 FILLER_27_1226
*1522 FILLER_27_1238
*1523 FILLER_27_125
*1524 FILLER_27_1250
*1525 FILLER_27_1262
*1526 FILLER_27_1274
*1527 FILLER_27_1278
*1528 FILLER_27_1280
*1529 FILLER_27_1292
*1530 FILLER_27_1304
*1531 FILLER_27_1316
*1532 FILLER_27_1328
*1533 FILLER_27_1334
*1534 FILLER_27_1336
*1535 FILLER_27_1348
*1536 FILLER_27_1360
*1537 FILLER_27_137
*1538 FILLER_27_1372
*1539 FILLER_27_1384
*1540 FILLER_27_1390
*1541 FILLER_27_1392
*1542 FILLER_27_1404
*1543 FILLER_27_1416
*1544 FILLER_27_1428
*1545 FILLER_27_1440
*1546 FILLER_27_1446
*1547 FILLER_27_1448
*1548 FILLER_27_149
*1549 FILLER_27_15
*1550 FILLER_27_161
*1551 FILLER_27_167
*1552 FILLER_27_169
*1553 FILLER_27_181
*1554 FILLER_27_193
*1555 FILLER_27_205
*1556 FILLER_27_217
*1557 FILLER_27_223
*1558 FILLER_27_225
*1559 FILLER_27_237
*1560 FILLER_27_249
*1561 FILLER_27_261
*1562 FILLER_27_27
*1563 FILLER_27_273
*1564 FILLER_27_279
*1565 FILLER_27_281
*1566 FILLER_27_293
*1567 FILLER_27_3
*1568 FILLER_27_301
*1569 FILLER_27_39
*1570 FILLER_27_51
*1571 FILLER_27_55
*1572 FILLER_27_57
*1573 FILLER_27_69
*1574 FILLER_27_81
*1575 FILLER_27_93
*1576 FILLER_28_109
*1577 FILLER_28_121
*1578 FILLER_28_1226
*1579 FILLER_28_1238
*1580 FILLER_28_1250
*1581 FILLER_28_1252
*1582 FILLER_28_1264
*1583 FILLER_28_1276
*1584 FILLER_28_1288
*1585 FILLER_28_1300
*1586 FILLER_28_1306
*1587 FILLER_28_1308
*1588 FILLER_28_1320
*1589 FILLER_28_133
*1590 FILLER_28_1332
*1591 FILLER_28_1344
*1592 FILLER_28_1356
*1593 FILLER_28_1362
*1594 FILLER_28_1364
*1595 FILLER_28_1376
*1596 FILLER_28_1388
*1597 FILLER_28_139
*1598 FILLER_28_1400
*1599 FILLER_28_141
*1600 FILLER_28_1412