*SPEF "ieee 1481-1999"
*DESIGN "tt_um_gatecat_fpga_top"
*DATE "11:11:11 Fri 11 11, 1111"
*VENDOR "OpenRCX"
*PROGRAM "Parallel Extraction"
*VERSION "1.0"
*DESIGN_FLOW "NAME_SCOPE LOCAL" "PIN_CAP NONE"
*DIVIDER /
*DELIMITER :
*BUS_DELIMITER []
*T_UNIT 1 NS
*C_UNIT 1 PF
*R_UNIT 1 OHM
*L_UNIT 1 HENRY

*NAME_MAP
*1 clk
*2 ena
*3 rst_n
*4 ui_in[0]
*5 ui_in[1]
*6 ui_in[2]
*7 ui_in[3]
*8 ui_in[4]
*9 ui_in[5]
*10 ui_in[6]
*11 ui_in[7]
*12 uio_in[0]
*13 uio_in[1]
*14 uio_in[2]
*15 uio_in[3]
*16 uio_in[4]
*17 uio_in[5]
*18 uio_in[6]
*19 uio_in[7]
*20 net68
*21 net69
*22 net70
*23 net71
*24 net72
*25 net73
*26 net74
*27 net75
*28 net60
*29 net61
*30 net62
*31 net63
*32 net64
*33 net65
*34 net66
*35 net67
*36 uo_out[0]
*37 uo_out[1]
*38 uo_out[2]
*39 uo_out[3]
*40 uo_out[4]
*41 uo_out[5]
*42 uo_out[6]
*43 uo_out[7]
*46 _000_
*47 _001_
*48 _002_
*49 _003_
*50 _004_
*51 _005_
*52 _006_
*53 _007_
*54 _008_
*55 _009_
*56 _010_
*57 _011_
*58 _012_
*59 _013_
*60 _014_
*61 _015_
*62 _016_
*63 _017_
*64 _018_
*65 _019_
*66 _020_
*67 _021_
*68 _022_
*69 _023_
*70 _024_
*71 _025_
*72 _026_
*73 _027_
*74 _028_
*75 cfg_datain
*76 cfg_frameinc
*77 cfg_framestrb
*78 clknet_0_clk
*79 clknet_2_0__leaf_clk
*80 clknet_2_1__leaf_clk
*81 clknet_2_2__leaf_clk
*82 clknet_2_3__leaf_clk
*83 frame_ctr\[0\]
*84 frame_ctr\[1\]
*85 frame_ctr\[2\]
*86 frame_ctr\[3\]
*87 gated_strobe
*88 net1
*89 net10
*90 net11
*91 net12
*92 net13
*93 net14
*94 net15
*95 net16
*96 net17
*97 net18
*98 net19
*99 net2
*100 net20
*101 net21
*102 net22
*103 net23
*104 net24
*105 net25
*106 net26
*107 net27
*108 net28
*109 net29
*110 net3
*111 net30
*112 net31
*113 net32
*114 net33
*115 net34
*116 net35
*117 net36
*118 net37
*119 net38
*120 net39
*121 net4
*122 net40
*123 net41
*124 net42
*125 net43
*126 net44
*127 net45
*128 net46
*129 net47
*130 net48
*131 net49
*132 net5
*133 net50
*134 net51
*135 net52
*136 net53
*137 net54
*138 net55
*139 net56
*140 net57
*141 net58
*142 net59
*143 net6
*144 net7
*145 net76
*146 net8
*147 net9
*148 y_c\[0\]\.x_c\[0\]\.lc_i\.B
*149 y_c\[0\]\.x_c\[0\]\.lc_i\.L
*150 y_c\[0\]\.x_c\[0\]\.lc_i\.Q
*151 y_c\[0\]\.x_c\[0\]\.lc_i\.R
*152 y_c\[0\]\.x_c\[0\]\.lc_i\.T
*153 y_c\[0\]\.x_c\[0\]\.lc_i\.cfg\[0\]
*154 y_c\[0\]\.x_c\[0\]\.lc_i\.cfg\[1\]
*155 y_c\[0\]\.x_c\[0\]\.lc_i\.cfg\[2\]
*156 y_c\[0\]\.x_c\[0\]\.lc_i\.cfg\[3\]
*157 y_c\[0\]\.x_c\[0\]\.lc_i\.cfg\[4\]
*158 y_c\[0\]\.x_c\[0\]\.lc_i\.cfg\[5\]
*159 y_c\[0\]\.x_c\[0\]\.lc_i\.cfg\[6\]
*160 y_c\[0\]\.x_c\[0\]\.lc_i\.cfg\[7\]
*161 y_c\[0\]\.x_c\[0\]\.lc_i\.cfg_data\[0\]
*162 y_c\[0\]\.x_c\[0\]\.lc_i\.cfg_data\[1\]
*163 y_c\[0\]\.x_c\[0\]\.lc_i\.cfg_data\[2\]
*164 y_c\[0\]\.x_c\[0\]\.lc_i\.cfg_data\[3\]
*165 y_c\[0\]\.x_c\[0\]\.lc_i\.cfg_mode
*166 y_c\[0\]\.x_c\[0\]\.lc_i\.cfg_strb\[0\]
*167 y_c\[0\]\.x_c\[0\]\.lc_i\.cfg_strb\[1\]
*168 y_c\[0\]\.x_c\[0\]\.lc_i\.dff\.dffo_n
*169 y_c\[0\]\.x_c\[0\]\.lc_i\.i0
*170 y_c\[0\]\.x_c\[0\]\.lc_i\.i0a
*171 y_c\[0\]\.x_c\[0\]\.lc_i\.i0b
*172 y_c\[0\]\.x_c\[0\]\.lc_i\.i1
*173 y_c\[0\]\.x_c\[0\]\.lc_i\.i1a
*174 y_c\[0\]\.x_c\[0\]\.lc_i\.i1b
*175 y_c\[0\]\.x_c\[0\]\.lc_i\.muxo_n
*176 y_c\[0\]\.x_c\[0\]\.lc_i\.s0
*177 y_c\[0\]\.x_c\[0\]\.lc_i\.s0a
*178 y_c\[0\]\.x_c\[0\]\.lc_i\.s0b
*179 y_c\[0\]\.x_c\[0\]\.lc_i\.s0s
*180 y_c\[0\]\.x_c\[1\]\.lc_i\.B
*181 y_c\[0\]\.x_c\[1\]\.lc_i\.R
*182 y_c\[0\]\.x_c\[1\]\.lc_i\.cfg\[0\]
*183 y_c\[0\]\.x_c\[1\]\.lc_i\.cfg\[1\]
*184 y_c\[0\]\.x_c\[1\]\.lc_i\.cfg\[2\]
*185 y_c\[0\]\.x_c\[1\]\.lc_i\.cfg\[3\]
*186 y_c\[0\]\.x_c\[1\]\.lc_i\.cfg\[4\]
*187 y_c\[0\]\.x_c\[1\]\.lc_i\.cfg\[5\]
*188 y_c\[0\]\.x_c\[1\]\.lc_i\.cfg\[6\]
*189 y_c\[0\]\.x_c\[1\]\.lc_i\.cfg\[7\]
*190 y_c\[0\]\.x_c\[1\]\.lc_i\.cfg_data\[0\]
*191 y_c\[0\]\.x_c\[1\]\.lc_i\.cfg_data\[1\]
*192 y_c\[0\]\.x_c\[1\]\.lc_i\.cfg_data\[2\]
*193 y_c\[0\]\.x_c\[1\]\.lc_i\.cfg_data\[3\]
*194 y_c\[0\]\.x_c\[1\]\.lc_i\.dff\.dffo_n
*195 y_c\[0\]\.x_c\[1\]\.lc_i\.i0
*196 y_c\[0\]\.x_c\[1\]\.lc_i\.i0a
*197 y_c\[0\]\.x_c\[1\]\.lc_i\.i0b
*198 y_c\[0\]\.x_c\[1\]\.lc_i\.i1
*199 y_c\[0\]\.x_c\[1\]\.lc_i\.i1a
*200 y_c\[0\]\.x_c\[1\]\.lc_i\.i1b
*201 y_c\[0\]\.x_c\[1\]\.lc_i\.muxo_n
*202 y_c\[0\]\.x_c\[1\]\.lc_i\.s0
*203 y_c\[0\]\.x_c\[1\]\.lc_i\.s0a
*204 y_c\[0\]\.x_c\[1\]\.lc_i\.s0b
*205 y_c\[0\]\.x_c\[1\]\.lc_i\.s0s
*206 y_c\[0\]\.x_c\[2\]\.lc_i\.B
*207 y_c\[0\]\.x_c\[2\]\.lc_i\.R
*208 y_c\[0\]\.x_c\[2\]\.lc_i\.T
*209 y_c\[0\]\.x_c\[2\]\.lc_i\.cfg\[0\]
*210 y_c\[0\]\.x_c\[2\]\.lc_i\.cfg\[1\]
*211 y_c\[0\]\.x_c\[2\]\.lc_i\.cfg\[2\]
*212 y_c\[0\]\.x_c\[2\]\.lc_i\.cfg\[3\]
*213 y_c\[0\]\.x_c\[2\]\.lc_i\.cfg\[4\]
*214 y_c\[0\]\.x_c\[2\]\.lc_i\.cfg\[5\]
*215 y_c\[0\]\.x_c\[2\]\.lc_i\.cfg\[6\]
*216 y_c\[0\]\.x_c\[2\]\.lc_i\.cfg\[7\]
*217 y_c\[0\]\.x_c\[2\]\.lc_i\.cfg_data\[0\]
*218 y_c\[0\]\.x_c\[2\]\.lc_i\.cfg_data\[1\]
*219 y_c\[0\]\.x_c\[2\]\.lc_i\.cfg_data\[2\]
*220 y_c\[0\]\.x_c\[2\]\.lc_i\.cfg_data\[3\]
*221 y_c\[0\]\.x_c\[2\]\.lc_i\.dff\.dffo_n
*222 y_c\[0\]\.x_c\[2\]\.lc_i\.i0
*223 y_c\[0\]\.x_c\[2\]\.lc_i\.i0a
*224 y_c\[0\]\.x_c\[2\]\.lc_i\.i0b
*225 y_c\[0\]\.x_c\[2\]\.lc_i\.i1
*226 y_c\[0\]\.x_c\[2\]\.lc_i\.i1a
*227 y_c\[0\]\.x_c\[2\]\.lc_i\.i1b
*228 y_c\[0\]\.x_c\[2\]\.lc_i\.muxo_n
*229 y_c\[0\]\.x_c\[2\]\.lc_i\.s0
*230 y_c\[0\]\.x_c\[2\]\.lc_i\.s0a
*231 y_c\[0\]\.x_c\[2\]\.lc_i\.s0b
*232 y_c\[0\]\.x_c\[2\]\.lc_i\.s0s
*233 y_c\[0\]\.x_c\[3\]\.lc_i\.B
*234 y_c\[0\]\.x_c\[3\]\.lc_i\.R
*235 y_c\[0\]\.x_c\[3\]\.lc_i\.T
*236 y_c\[0\]\.x_c\[3\]\.lc_i\.cfg\[0\]
*237 y_c\[0\]\.x_c\[3\]\.lc_i\.cfg\[1\]
*238 y_c\[0\]\.x_c\[3\]\.lc_i\.cfg\[2\]
*239 y_c\[0\]\.x_c\[3\]\.lc_i\.cfg\[3\]
*240 y_c\[0\]\.x_c\[3\]\.lc_i\.cfg\[4\]
*241 y_c\[0\]\.x_c\[3\]\.lc_i\.cfg\[5\]
*242 y_c\[0\]\.x_c\[3\]\.lc_i\.cfg\[6\]
*243 y_c\[0\]\.x_c\[3\]\.lc_i\.cfg\[7\]
*244 y_c\[0\]\.x_c\[3\]\.lc_i\.cfg_data\[0\]
*245 y_c\[0\]\.x_c\[3\]\.lc_i\.cfg_data\[1\]
*246 y_c\[0\]\.x_c\[3\]\.lc_i\.cfg_data\[2\]
*247 y_c\[0\]\.x_c\[3\]\.lc_i\.cfg_data\[3\]
*248 y_c\[0\]\.x_c\[3\]\.lc_i\.dff\.dffo_n
*249 y_c\[0\]\.x_c\[3\]\.lc_i\.i0
*250 y_c\[0\]\.x_c\[3\]\.lc_i\.i0a
*251 y_c\[0\]\.x_c\[3\]\.lc_i\.i0b
*252 y_c\[0\]\.x_c\[3\]\.lc_i\.i1
*253 y_c\[0\]\.x_c\[3\]\.lc_i\.i1a
*254 y_c\[0\]\.x_c\[3\]\.lc_i\.i1b
*255 y_c\[0\]\.x_c\[3\]\.lc_i\.muxo_n
*256 y_c\[0\]\.x_c\[3\]\.lc_i\.s0
*257 y_c\[0\]\.x_c\[3\]\.lc_i\.s0a
*258 y_c\[0\]\.x_c\[3\]\.lc_i\.s0b
*259 y_c\[0\]\.x_c\[3\]\.lc_i\.s0s
*260 y_c\[0\]\.x_c\[4\]\.lc_i\.B
*261 y_c\[0\]\.x_c\[4\]\.lc_i\.T
*262 y_c\[0\]\.x_c\[4\]\.lc_i\.cfg\[0\]
*263 y_c\[0\]\.x_c\[4\]\.lc_i\.cfg\[1\]
*264 y_c\[0\]\.x_c\[4\]\.lc_i\.cfg\[2\]
*265 y_c\[0\]\.x_c\[4\]\.lc_i\.cfg\[3\]
*266 y_c\[0\]\.x_c\[4\]\.lc_i\.cfg\[4\]
*267 y_c\[0\]\.x_c\[4\]\.lc_i\.cfg\[5\]
*268 y_c\[0\]\.x_c\[4\]\.lc_i\.cfg\[6\]
*269 y_c\[0\]\.x_c\[4\]\.lc_i\.cfg\[7\]
*270 y_c\[0\]\.x_c\[4\]\.lc_i\.cfg_data\[0\]
*271 y_c\[0\]\.x_c\[4\]\.lc_i\.cfg_data\[1\]
*272 y_c\[0\]\.x_c\[4\]\.lc_i\.cfg_data\[2\]
*273 y_c\[0\]\.x_c\[4\]\.lc_i\.cfg_data\[3\]
*274 y_c\[0\]\.x_c\[4\]\.lc_i\.dff\.dffo_n
*275 y_c\[0\]\.x_c\[4\]\.lc_i\.i0
*276 y_c\[0\]\.x_c\[4\]\.lc_i\.i0a
*277 y_c\[0\]\.x_c\[4\]\.lc_i\.i0b
*278 y_c\[0\]\.x_c\[4\]\.lc_i\.i1
*279 y_c\[0\]\.x_c\[4\]\.lc_i\.i1a
*280 y_c\[0\]\.x_c\[4\]\.lc_i\.i1b
*281 y_c\[0\]\.x_c\[4\]\.lc_i\.muxo_n
*282 y_c\[0\]\.x_c\[4\]\.lc_i\.s0
*283 y_c\[0\]\.x_c\[4\]\.lc_i\.s0a
*284 y_c\[0\]\.x_c\[4\]\.lc_i\.s0b
*285 y_c\[0\]\.x_c\[4\]\.lc_i\.s0s
*286 y_c\[1\]\.x_c\[0\]\.lc_i\.B
*287 y_c\[1\]\.x_c\[0\]\.lc_i\.cfg\[0\]
*288 y_c\[1\]\.x_c\[0\]\.lc_i\.cfg\[1\]
*289 y_c\[1\]\.x_c\[0\]\.lc_i\.cfg\[2\]
*290 y_c\[1\]\.x_c\[0\]\.lc_i\.cfg\[3\]
*291 y_c\[1\]\.x_c\[0\]\.lc_i\.cfg\[4\]
*292 y_c\[1\]\.x_c\[0\]\.lc_i\.cfg\[5\]
*293 y_c\[1\]\.x_c\[0\]\.lc_i\.cfg\[6\]
*294 y_c\[1\]\.x_c\[0\]\.lc_i\.cfg\[7\]
*295 y_c\[1\]\.x_c\[0\]\.lc_i\.cfg_strb\[0\]
*296 y_c\[1\]\.x_c\[0\]\.lc_i\.cfg_strb\[1\]
*297 y_c\[1\]\.x_c\[0\]\.lc_i\.dff\.dffo_n
*298 y_c\[1\]\.x_c\[0\]\.lc_i\.i0
*299 y_c\[1\]\.x_c\[0\]\.lc_i\.i0a
*300 y_c\[1\]\.x_c\[0\]\.lc_i\.i0b
*301 y_c\[1\]\.x_c\[0\]\.lc_i\.i1
*302 y_c\[1\]\.x_c\[0\]\.lc_i\.i1a
*303 y_c\[1\]\.x_c\[0\]\.lc_i\.i1b
*304 y_c\[1\]\.x_c\[0\]\.lc_i\.muxo_n
*305 y_c\[1\]\.x_c\[0\]\.lc_i\.s0
*306 y_c\[1\]\.x_c\[0\]\.lc_i\.s0a
*307 y_c\[1\]\.x_c\[0\]\.lc_i\.s0b
*308 y_c\[1\]\.x_c\[0\]\.lc_i\.s0s
*309 y_c\[1\]\.x_c\[1\]\.lc_i\.B
*310 y_c\[1\]\.x_c\[1\]\.lc_i\.cfg\[0\]
*311 y_c\[1\]\.x_c\[1\]\.lc_i\.cfg\[1\]
*312 y_c\[1\]\.x_c\[1\]\.lc_i\.cfg\[2\]
*313 y_c\[1\]\.x_c\[1\]\.lc_i\.cfg\[3\]
*314 y_c\[1\]\.x_c\[1\]\.lc_i\.cfg\[4\]
*315 y_c\[1\]\.x_c\[1\]\.lc_i\.cfg\[5\]
*316 y_c\[1\]\.x_c\[1\]\.lc_i\.cfg\[6\]
*317 y_c\[1\]\.x_c\[1\]\.lc_i\.cfg\[7\]
*318 y_c\[1\]\.x_c\[1\]\.lc_i\.dff\.dffo_n
*319 y_c\[1\]\.x_c\[1\]\.lc_i\.i0
*320 y_c\[1\]\.x_c\[1\]\.lc_i\.i0a
*321 y_c\[1\]\.x_c\[1\]\.lc_i\.i0b
*322 y_c\[1\]\.x_c\[1\]\.lc_i\.i1
*323 y_c\[1\]\.x_c\[1\]\.lc_i\.i1a
*324 y_c\[1\]\.x_c\[1\]\.lc_i\.i1b
*325 y_c\[1\]\.x_c\[1\]\.lc_i\.muxo_n
*326 y_c\[1\]\.x_c\[1\]\.lc_i\.s0
*327 y_c\[1\]\.x_c\[1\]\.lc_i\.s0a
*328 y_c\[1\]\.x_c\[1\]\.lc_i\.s0b
*329 y_c\[1\]\.x_c\[1\]\.lc_i\.s0s
*330 y_c\[1\]\.x_c\[2\]\.lc_i\.B
*331 y_c\[1\]\.x_c\[2\]\.lc_i\.cfg\[0\]
*332 y_c\[1\]\.x_c\[2\]\.lc_i\.cfg\[1\]
*333 y_c\[1\]\.x_c\[2\]\.lc_i\.cfg\[2\]
*334 y_c\[1\]\.x_c\[2\]\.lc_i\.cfg\[3\]
*335 y_c\[1\]\.x_c\[2\]\.lc_i\.cfg\[4\]
*336 y_c\[1\]\.x_c\[2\]\.lc_i\.cfg\[5\]
*337 y_c\[1\]\.x_c\[2\]\.lc_i\.cfg\[6\]
*338 y_c\[1\]\.x_c\[2\]\.lc_i\.cfg\[7\]
*339 y_c\[1\]\.x_c\[2\]\.lc_i\.dff\.dffo_n
*340 y_c\[1\]\.x_c\[2\]\.lc_i\.i0
*341 y_c\[1\]\.x_c\[2\]\.lc_i\.i0a
*342 y_c\[1\]\.x_c\[2\]\.lc_i\.i0b
*343 y_c\[1\]\.x_c\[2\]\.lc_i\.i1
*344 y_c\[1\]\.x_c\[2\]\.lc_i\.i1a
*345 y_c\[1\]\.x_c\[2\]\.lc_i\.i1b
*346 y_c\[1\]\.x_c\[2\]\.lc_i\.muxo_n
*347 y_c\[1\]\.x_c\[2\]\.lc_i\.s0
*348 y_c\[1\]\.x_c\[2\]\.lc_i\.s0a
*349 y_c\[1\]\.x_c\[2\]\.lc_i\.s0b
*350 y_c\[1\]\.x_c\[2\]\.lc_i\.s0s
*351 y_c\[1\]\.x_c\[3\]\.lc_i\.B
*352 y_c\[1\]\.x_c\[3\]\.lc_i\.cfg\[0\]
*353 y_c\[1\]\.x_c\[3\]\.lc_i\.cfg\[1\]
*354 y_c\[1\]\.x_c\[3\]\.lc_i\.cfg\[2\]
*355 y_c\[1\]\.x_c\[3\]\.lc_i\.cfg\[3\]
*356 y_c\[1\]\.x_c\[3\]\.lc_i\.cfg\[4\]
*357 y_c\[1\]\.x_c\[3\]\.lc_i\.cfg\[5\]
*358 y_c\[1\]\.x_c\[3\]\.lc_i\.cfg\[6\]
*359 y_c\[1\]\.x_c\[3\]\.lc_i\.cfg\[7\]
*360 y_c\[1\]\.x_c\[3\]\.lc_i\.dff\.dffo_n
*361 y_c\[1\]\.x_c\[3\]\.lc_i\.i0
*362 y_c\[1\]\.x_c\[3\]\.lc_i\.i0a
*363 y_c\[1\]\.x_c\[3\]\.lc_i\.i0b
*364 y_c\[1\]\.x_c\[3\]\.lc_i\.i1
*365 y_c\[1\]\.x_c\[3\]\.lc_i\.i1a
*366 y_c\[1\]\.x_c\[3\]\.lc_i\.i1b
*367 y_c\[1\]\.x_c\[3\]\.lc_i\.muxo_n
*368 y_c\[1\]\.x_c\[3\]\.lc_i\.s0
*369 y_c\[1\]\.x_c\[3\]\.lc_i\.s0a
*370 y_c\[1\]\.x_c\[3\]\.lc_i\.s0b
*371 y_c\[1\]\.x_c\[3\]\.lc_i\.s0s
*372 y_c\[1\]\.x_c\[4\]\.lc_i\.B
*373 y_c\[1\]\.x_c\[4\]\.lc_i\.cfg\[0\]
*374 y_c\[1\]\.x_c\[4\]\.lc_i\.cfg\[1\]
*375 y_c\[1\]\.x_c\[4\]\.lc_i\.cfg\[2\]
*376 y_c\[1\]\.x_c\[4\]\.lc_i\.cfg\[3\]
*377 y_c\[1\]\.x_c\[4\]\.lc_i\.cfg\[4\]
*378 y_c\[1\]\.x_c\[4\]\.lc_i\.cfg\[5\]
*379 y_c\[1\]\.x_c\[4\]\.lc_i\.cfg\[6\]
*380 y_c\[1\]\.x_c\[4\]\.lc_i\.cfg\[7\]
*381 y_c\[1\]\.x_c\[4\]\.lc_i\.dff\.dffo_n
*382 y_c\[1\]\.x_c\[4\]\.lc_i\.i0
*383 y_c\[1\]\.x_c\[4\]\.lc_i\.i0a
*384 y_c\[1\]\.x_c\[4\]\.lc_i\.i0b
*385 y_c\[1\]\.x_c\[4\]\.lc_i\.i1
*386 y_c\[1\]\.x_c\[4\]\.lc_i\.i1a
*387 y_c\[1\]\.x_c\[4\]\.lc_i\.i1b
*388 y_c\[1\]\.x_c\[4\]\.lc_i\.muxo_n
*389 y_c\[1\]\.x_c\[4\]\.lc_i\.s0
*390 y_c\[1\]\.x_c\[4\]\.lc_i\.s0a
*391 y_c\[1\]\.x_c\[4\]\.lc_i\.s0b
*392 y_c\[1\]\.x_c\[4\]\.lc_i\.s0s
*393 y_c\[2\]\.x_c\[0\]\.lc_i\.B
*394 y_c\[2\]\.x_c\[0\]\.lc_i\.cfg\[0\]
*395 y_c\[2\]\.x_c\[0\]\.lc_i\.cfg\[1\]
*396 y_c\[2\]\.x_c\[0\]\.lc_i\.cfg\[2\]
*397 y_c\[2\]\.x_c\[0\]\.lc_i\.cfg\[3\]
*398 y_c\[2\]\.x_c\[0\]\.lc_i\.cfg\[4\]
*399 y_c\[2\]\.x_c\[0\]\.lc_i\.cfg\[5\]
*400 y_c\[2\]\.x_c\[0\]\.lc_i\.cfg\[6\]
*401 y_c\[2\]\.x_c\[0\]\.lc_i\.cfg\[7\]
*402 y_c\[2\]\.x_c\[0\]\.lc_i\.cfg_strb\[0\]
*403 y_c\[2\]\.x_c\[0\]\.lc_i\.cfg_strb\[1\]
*404 y_c\[2\]\.x_c\[0\]\.lc_i\.dff\.dffo_n
*405 y_c\[2\]\.x_c\[0\]\.lc_i\.i0
*406 y_c\[2\]\.x_c\[0\]\.lc_i\.i0a
*407 y_c\[2\]\.x_c\[0\]\.lc_i\.i0b
*408 y_c\[2\]\.x_c\[0\]\.lc_i\.i1
*409 y_c\[2\]\.x_c\[0\]\.lc_i\.i1a
*410 y_c\[2\]\.x_c\[0\]\.lc_i\.i1b
*411 y_c\[2\]\.x_c\[0\]\.lc_i\.muxo_n
*412 y_c\[2\]\.x_c\[0\]\.lc_i\.s0
*413 y_c\[2\]\.x_c\[0\]\.lc_i\.s0a
*414 y_c\[2\]\.x_c\[0\]\.lc_i\.s0b
*415 y_c\[2\]\.x_c\[0\]\.lc_i\.s0s
*416 y_c\[2\]\.x_c\[1\]\.lc_i\.B
*417 y_c\[2\]\.x_c\[1\]\.lc_i\.cfg\[0\]
*418 y_c\[2\]\.x_c\[1\]\.lc_i\.cfg\[1\]
*419 y_c\[2\]\.x_c\[1\]\.lc_i\.cfg\[2\]
*420 y_c\[2\]\.x_c\[1\]\.lc_i\.cfg\[3\]
*421 y_c\[2\]\.x_c\[1\]\.lc_i\.cfg\[4\]
*422 y_c\[2\]\.x_c\[1\]\.lc_i\.cfg\[5\]
*423 y_c\[2\]\.x_c\[1\]\.lc_i\.cfg\[6\]
*424 y_c\[2\]\.x_c\[1\]\.lc_i\.cfg\[7\]
*425 y_c\[2\]\.x_c\[1\]\.lc_i\.dff\.dffo_n
*426 y_c\[2\]\.x_c\[1\]\.lc_i\.i0
*427 y_c\[2\]\.x_c\[1\]\.lc_i\.i0a
*428 y_c\[2\]\.x_c\[1\]\.lc_i\.i0b
*429 y_c\[2\]\.x_c\[1\]\.lc_i\.i1
*430 y_c\[2\]\.x_c\[1\]\.lc_i\.i1a
*431 y_c\[2\]\.x_c\[1\]\.lc_i\.i1b
*432 y_c\[2\]\.x_c\[1\]\.lc_i\.muxo_n
*433 y_c\[2\]\.x_c\[1\]\.lc_i\.s0
*434 y_c\[2\]\.x_c\[1\]\.lc_i\.s0a
*435 y_c\[2\]\.x_c\[1\]\.lc_i\.s0b
*436 y_c\[2\]\.x_c\[1\]\.lc_i\.s0s
*437 y_c\[2\]\.x_c\[2\]\.lc_i\.B
*438 y_c\[2\]\.x_c\[2\]\.lc_i\.cfg\[0\]
*439 y_c\[2\]\.x_c\[2\]\.lc_i\.cfg\[1\]
*440 y_c\[2\]\.x_c\[2\]\.lc_i\.cfg\[2\]
*441 y_c\[2\]\.x_c\[2\]\.lc_i\.cfg\[3\]
*442 y_c\[2\]\.x_c\[2\]\.lc_i\.cfg\[4\]
*443 y_c\[2\]\.x_c\[2\]\.lc_i\.cfg\[5\]
*444 y_c\[2\]\.x_c\[2\]\.lc_i\.cfg\[6\]
*445 y_c\[2\]\.x_c\[2\]\.lc_i\.cfg\[7\]
*446 y_c\[2\]\.x_c\[2\]\.lc_i\.dff\.dffo_n
*447 y_c\[2\]\.x_c\[2\]\.lc_i\.i0
*448 y_c\[2\]\.x_c\[2\]\.lc_i\.i0a
*449 y_c\[2\]\.x_c\[2\]\.lc_i\.i0b
*450 y_c\[2\]\.x_c\[2\]\.lc_i\.i1
*451 y_c\[2\]\.x_c\[2\]\.lc_i\.i1a
*452 y_c\[2\]\.x_c\[2\]\.lc_i\.i1b
*453 y_c\[2\]\.x_c\[2\]\.lc_i\.muxo_n
*454 y_c\[2\]\.x_c\[2\]\.lc_i\.s0
*455 y_c\[2\]\.x_c\[2\]\.lc_i\.s0a
*456 y_c\[2\]\.x_c\[2\]\.lc_i\.s0b
*457 y_c\[2\]\.x_c\[2\]\.lc_i\.s0s
*458 y_c\[2\]\.x_c\[3\]\.lc_i\.B
*459 y_c\[2\]\.x_c\[3\]\.lc_i\.cfg\[0\]
*460 y_c\[2\]\.x_c\[3\]\.lc_i\.cfg\[1\]
*461 y_c\[2\]\.x_c\[3\]\.lc_i\.cfg\[2\]
*462 y_c\[2\]\.x_c\[3\]\.lc_i\.cfg\[3\]
*463 y_c\[2\]\.x_c\[3\]\.lc_i\.cfg\[4\]
*464 y_c\[2\]\.x_c\[3\]\.lc_i\.cfg\[5\]
*465 y_c\[2\]\.x_c\[3\]\.lc_i\.cfg\[6\]
*466 y_c\[2\]\.x_c\[3\]\.lc_i\.cfg\[7\]
*467 y_c\[2\]\.x_c\[3\]\.lc_i\.dff\.dffo_n
*468 y_c\[2\]\.x_c\[3\]\.lc_i\.i0
*469 y_c\[2\]\.x_c\[3\]\.lc_i\.i0a
*470 y_c\[2\]\.x_c\[3\]\.lc_i\.i0b
*471 y_c\[2\]\.x_c\[3\]\.lc_i\.i1
*472 y_c\[2\]\.x_c\[3\]\.lc_i\.i1a
*473 y_c\[2\]\.x_c\[3\]\.lc_i\.i1b
*474 y_c\[2\]\.x_c\[3\]\.lc_i\.muxo_n
*475 y_c\[2\]\.x_c\[3\]\.lc_i\.s0
*476 y_c\[2\]\.x_c\[3\]\.lc_i\.s0a
*477 y_c\[2\]\.x_c\[3\]\.lc_i\.s0b
*478 y_c\[2\]\.x_c\[3\]\.lc_i\.s0s
*479 y_c\[2\]\.x_c\[4\]\.lc_i\.B
*480 y_c\[2\]\.x_c\[4\]\.lc_i\.cfg\[0\]
*481 y_c\[2\]\.x_c\[4\]\.lc_i\.cfg\[1\]
*482 y_c\[2\]\.x_c\[4\]\.lc_i\.cfg\[2\]
*483 y_c\[2\]\.x_c\[4\]\.lc_i\.cfg\[3\]
*484 y_c\[2\]\.x_c\[4\]\.lc_i\.cfg\[4\]
*485 y_c\[2\]\.x_c\[4\]\.lc_i\.cfg\[5\]
*486 y_c\[2\]\.x_c\[4\]\.lc_i\.cfg\[6\]
*487 y_c\[2\]\.x_c\[4\]\.lc_i\.cfg\[7\]
*488 y_c\[2\]\.x_c\[4\]\.lc_i\.dff\.dffo_n
*489 y_c\[2\]\.x_c\[4\]\.lc_i\.i0
*490 y_c\[2\]\.x_c\[4\]\.lc_i\.i0a
*491 y_c\[2\]\.x_c\[4\]\.lc_i\.i0b
*492 y_c\[2\]\.x_c\[4\]\.lc_i\.i1
*493 y_c\[2\]\.x_c\[4\]\.lc_i\.i1a
*494 y_c\[2\]\.x_c\[4\]\.lc_i\.i1b
*495 y_c\[2\]\.x_c\[4\]\.lc_i\.muxo_n
*496 y_c\[2\]\.x_c\[4\]\.lc_i\.s0
*497 y_c\[2\]\.x_c\[4\]\.lc_i\.s0a
*498 y_c\[2\]\.x_c\[4\]\.lc_i\.s0b
*499 y_c\[2\]\.x_c\[4\]\.lc_i\.s0s
*500 y_c\[3\]\.x_c\[0\]\.lc_i\.B
*501 y_c\[3\]\.x_c\[0\]\.lc_i\.cfg\[0\]
*502 y_c\[3\]\.x_c\[0\]\.lc_i\.cfg\[1\]
*503 y_c\[3\]\.x_c\[0\]\.lc_i\.cfg\[2\]
*504 y_c\[3\]\.x_c\[0\]\.lc_i\.cfg\[3\]
*505 y_c\[3\]\.x_c\[0\]\.lc_i\.cfg\[4\]
*506 y_c\[3\]\.x_c\[0\]\.lc_i\.cfg\[5\]
*507 y_c\[3\]\.x_c\[0\]\.lc_i\.cfg\[6\]
*508 y_c\[3\]\.x_c\[0\]\.lc_i\.cfg\[7\]
*509 y_c\[3\]\.x_c\[0\]\.lc_i\.cfg_strb\[0\]
*510 y_c\[3\]\.x_c\[0\]\.lc_i\.cfg_strb\[1\]
*511 y_c\[3\]\.x_c\[0\]\.lc_i\.dff\.dffo_n
*512 y_c\[3\]\.x_c\[0\]\.lc_i\.i0
*513 y_c\[3\]\.x_c\[0\]\.lc_i\.i0a
*514 y_c\[3\]\.x_c\[0\]\.lc_i\.i0b
*515 y_c\[3\]\.x_c\[0\]\.lc_i\.i1
*516 y_c\[3\]\.x_c\[0\]\.lc_i\.i1a
*517 y_c\[3\]\.x_c\[0\]\.lc_i\.i1b
*518 y_c\[3\]\.x_c\[0\]\.lc_i\.muxo_n
*519 y_c\[3\]\.x_c\[0\]\.lc_i\.s0
*520 y_c\[3\]\.x_c\[0\]\.lc_i\.s0a
*521 y_c\[3\]\.x_c\[0\]\.lc_i\.s0b
*522 y_c\[3\]\.x_c\[0\]\.lc_i\.s0s
*523 y_c\[3\]\.x_c\[1\]\.lc_i\.B
*524 y_c\[3\]\.x_c\[1\]\.lc_i\.cfg\[0\]
*525 y_c\[3\]\.x_c\[1\]\.lc_i\.cfg\[1\]
*526 y_c\[3\]\.x_c\[1\]\.lc_i\.cfg\[2\]
*527 y_c\[3\]\.x_c\[1\]\.lc_i\.cfg\[3\]
*528 y_c\[3\]\.x_c\[1\]\.lc_i\.cfg\[4\]
*529 y_c\[3\]\.x_c\[1\]\.lc_i\.cfg\[5\]
*530 y_c\[3\]\.x_c\[1\]\.lc_i\.cfg\[6\]
*531 y_c\[3\]\.x_c\[1\]\.lc_i\.cfg\[7\]
*532 y_c\[3\]\.x_c\[1\]\.lc_i\.dff\.dffo_n
*533 y_c\[3\]\.x_c\[1\]\.lc_i\.i0
*534 y_c\[3\]\.x_c\[1\]\.lc_i\.i0a
*535 y_c\[3\]\.x_c\[1\]\.lc_i\.i0b
*536 y_c\[3\]\.x_c\[1\]\.lc_i\.i1
*537 y_c\[3\]\.x_c\[1\]\.lc_i\.i1a
*538 y_c\[3\]\.x_c\[1\]\.lc_i\.i1b
*539 y_c\[3\]\.x_c\[1\]\.lc_i\.muxo_n
*540 y_c\[3\]\.x_c\[1\]\.lc_i\.s0
*541 y_c\[3\]\.x_c\[1\]\.lc_i\.s0a
*542 y_c\[3\]\.x_c\[1\]\.lc_i\.s0b
*543 y_c\[3\]\.x_c\[1\]\.lc_i\.s0s
*544 y_c\[3\]\.x_c\[2\]\.lc_i\.B
*545 y_c\[3\]\.x_c\[2\]\.lc_i\.cfg\[0\]
*546 y_c\[3\]\.x_c\[2\]\.lc_i\.cfg\[1\]
*547 y_c\[3\]\.x_c\[2\]\.lc_i\.cfg\[2\]
*548 y_c\[3\]\.x_c\[2\]\.lc_i\.cfg\[3\]
*549 y_c\[3\]\.x_c\[2\]\.lc_i\.cfg\[4\]
*550 y_c\[3\]\.x_c\[2\]\.lc_i\.cfg\[5\]
*551 y_c\[3\]\.x_c\[2\]\.lc_i\.cfg\[6\]
*552 y_c\[3\]\.x_c\[2\]\.lc_i\.cfg\[7\]
*553 y_c\[3\]\.x_c\[2\]\.lc_i\.dff\.dffo_n
*554 y_c\[3\]\.x_c\[2\]\.lc_i\.i0
*555 y_c\[3\]\.x_c\[2\]\.lc_i\.i0a
*556 y_c\[3\]\.x_c\[2\]\.lc_i\.i0b
*557 y_c\[3\]\.x_c\[2\]\.lc_i\.i1
*558 y_c\[3\]\.x_c\[2\]\.lc_i\.i1a
*559 y_c\[3\]\.x_c\[2\]\.lc_i\.i1b
*560 y_c\[3\]\.x_c\[2\]\.lc_i\.muxo_n
*561 y_c\[3\]\.x_c\[2\]\.lc_i\.s0
*562 y_c\[3\]\.x_c\[2\]\.lc_i\.s0a
*563 y_c\[3\]\.x_c\[2\]\.lc_i\.s0b
*564 y_c\[3\]\.x_c\[2\]\.lc_i\.s0s
*565 y_c\[3\]\.x_c\[3\]\.lc_i\.B
*566 y_c\[3\]\.x_c\[3\]\.lc_i\.cfg\[0\]
*567 y_c\[3\]\.x_c\[3\]\.lc_i\.cfg\[1\]
*568 y_c\[3\]\.x_c\[3\]\.lc_i\.cfg\[2\]
*569 y_c\[3\]\.x_c\[3\]\.lc_i\.cfg\[3\]
*570 y_c\[3\]\.x_c\[3\]\.lc_i\.cfg\[4\]
*571 y_c\[3\]\.x_c\[3\]\.lc_i\.cfg\[5\]
*572 y_c\[3\]\.x_c\[3\]\.lc_i\.cfg\[6\]
*573 y_c\[3\]\.x_c\[3\]\.lc_i\.cfg\[7\]
*574 y_c\[3\]\.x_c\[3\]\.lc_i\.dff\.dffo_n
*575 y_c\[3\]\.x_c\[3\]\.lc_i\.i0
*576 y_c\[3\]\.x_c\[3\]\.lc_i\.i0a
*577 y_c\[3\]\.x_c\[3\]\.lc_i\.i0b
*578 y_c\[3\]\.x_c\[3\]\.lc_i\.i1
*579 y_c\[3\]\.x_c\[3\]\.lc_i\.i1a
*580 y_c\[3\]\.x_c\[3\]\.lc_i\.i1b
*581 y_c\[3\]\.x_c\[3\]\.lc_i\.muxo_n
*582 y_c\[3\]\.x_c\[3\]\.lc_i\.s0
*583 y_c\[3\]\.x_c\[3\]\.lc_i\.s0a
*584 y_c\[3\]\.x_c\[3\]\.lc_i\.s0b
*585 y_c\[3\]\.x_c\[3\]\.lc_i\.s0s
*586 y_c\[3\]\.x_c\[4\]\.lc_i\.B
*587 y_c\[3\]\.x_c\[4\]\.lc_i\.cfg\[0\]
*588 y_c\[3\]\.x_c\[4\]\.lc_i\.cfg\[1\]
*589 y_c\[3\]\.x_c\[4\]\.lc_i\.cfg\[2\]
*590 y_c\[3\]\.x_c\[4\]\.lc_i\.cfg\[3\]
*591 y_c\[3\]\.x_c\[4\]\.lc_i\.cfg\[4\]
*592 y_c\[3\]\.x_c\[4\]\.lc_i\.cfg\[5\]
*593 y_c\[3\]\.x_c\[4\]\.lc_i\.cfg\[6\]
*594 y_c\[3\]\.x_c\[4\]\.lc_i\.cfg\[7\]
*595 y_c\[3\]\.x_c\[4\]\.lc_i\.dff\.dffo_n
*596 y_c\[3\]\.x_c\[4\]\.lc_i\.i0
*597 y_c\[3\]\.x_c\[4\]\.lc_i\.i0a
*598 y_c\[3\]\.x_c\[4\]\.lc_i\.i0b
*599 y_c\[3\]\.x_c\[4\]\.lc_i\.i1
*600 y_c\[3\]\.x_c\[4\]\.lc_i\.i1a
*601 y_c\[3\]\.x_c\[4\]\.lc_i\.i1b
*602 y_c\[3\]\.x_c\[4\]\.lc_i\.muxo_n
*603 y_c\[3\]\.x_c\[4\]\.lc_i\.s0
*604 y_c\[3\]\.x_c\[4\]\.lc_i\.s0a
*605 y_c\[3\]\.x_c\[4\]\.lc_i\.s0b
*606 y_c\[3\]\.x_c\[4\]\.lc_i\.s0s
*607 y_c\[4\]\.x_c\[0\]\.lc_i\.B
*608 y_c\[4\]\.x_c\[0\]\.lc_i\.L
*609 y_c\[4\]\.x_c\[0\]\.lc_i\.cfg\[0\]
*610 y_c\[4\]\.x_c\[0\]\.lc_i\.cfg\[1\]
*611 y_c\[4\]\.x_c\[0\]\.lc_i\.cfg\[2\]
*612 y_c\[4\]\.x_c\[0\]\.lc_i\.cfg\[3\]
*613 y_c\[4\]\.x_c\[0\]\.lc_i\.cfg\[4\]
*614 y_c\[4\]\.x_c\[0\]\.lc_i\.cfg\[5\]
*615 y_c\[4\]\.x_c\[0\]\.lc_i\.cfg\[6\]
*616 y_c\[4\]\.x_c\[0\]\.lc_i\.cfg\[7\]
*617 y_c\[4\]\.x_c\[0\]\.lc_i\.cfg_strb\[0\]
*618 y_c\[4\]\.x_c\[0\]\.lc_i\.cfg_strb\[1\]
*619 y_c\[4\]\.x_c\[0\]\.lc_i\.dff\.dffo_n
*620 y_c\[4\]\.x_c\[0\]\.lc_i\.i0
*621 y_c\[4\]\.x_c\[0\]\.lc_i\.i0a
*622 y_c\[4\]\.x_c\[0\]\.lc_i\.i0b
*623 y_c\[4\]\.x_c\[0\]\.lc_i\.i1
*624 y_c\[4\]\.x_c\[0\]\.lc_i\.i1a
*625 y_c\[4\]\.x_c\[0\]\.lc_i\.i1b
*626 y_c\[4\]\.x_c\[0\]\.lc_i\.muxo_n
*627 y_c\[4\]\.x_c\[0\]\.lc_i\.s0
*628 y_c\[4\]\.x_c\[0\]\.lc_i\.s0a
*629 y_c\[4\]\.x_c\[0\]\.lc_i\.s0b
*630 y_c\[4\]\.x_c\[0\]\.lc_i\.s0s
*631 y_c\[4\]\.x_c\[1\]\.lc_i\.B
*632 y_c\[4\]\.x_c\[1\]\.lc_i\.cfg\[0\]
*633 y_c\[4\]\.x_c\[1\]\.lc_i\.cfg\[1\]
*634 y_c\[4\]\.x_c\[1\]\.lc_i\.cfg\[2\]
*635 y_c\[4\]\.x_c\[1\]\.lc_i\.cfg\[3\]
*636 y_c\[4\]\.x_c\[1\]\.lc_i\.cfg\[4\]
*637 y_c\[4\]\.x_c\[1\]\.lc_i\.cfg\[5\]
*638 y_c\[4\]\.x_c\[1\]\.lc_i\.cfg\[6\]
*639 y_c\[4\]\.x_c\[1\]\.lc_i\.cfg\[7\]
*640 y_c\[4\]\.x_c\[1\]\.lc_i\.dff\.dffo_n
*641 y_c\[4\]\.x_c\[1\]\.lc_i\.i0
*642 y_c\[4\]\.x_c\[1\]\.lc_i\.i0a
*643 y_c\[4\]\.x_c\[1\]\.lc_i\.i0b
*644 y_c\[4\]\.x_c\[1\]\.lc_i\.i1
*645 y_c\[4\]\.x_c\[1\]\.lc_i\.i1a
*646 y_c\[4\]\.x_c\[1\]\.lc_i\.i1b
*647 y_c\[4\]\.x_c\[1\]\.lc_i\.muxo_n
*648 y_c\[4\]\.x_c\[1\]\.lc_i\.s0
*649 y_c\[4\]\.x_c\[1\]\.lc_i\.s0a
*650 y_c\[4\]\.x_c\[1\]\.lc_i\.s0b
*651 y_c\[4\]\.x_c\[1\]\.lc_i\.s0s
*652 y_c\[4\]\.x_c\[2\]\.lc_i\.B
*653 y_c\[4\]\.x_c\[2\]\.lc_i\.cfg\[0\]
*654 y_c\[4\]\.x_c\[2\]\.lc_i\.cfg\[1\]
*655 y_c\[4\]\.x_c\[2\]\.lc_i\.cfg\[2\]
*656 y_c\[4\]\.x_c\[2\]\.lc_i\.cfg\[3\]
*657 y_c\[4\]\.x_c\[2\]\.lc_i\.cfg\[4\]
*658 y_c\[4\]\.x_c\[2\]\.lc_i\.cfg\[5\]
*659 y_c\[4\]\.x_c\[2\]\.lc_i\.cfg\[6\]
*660 y_c\[4\]\.x_c\[2\]\.lc_i\.cfg\[7\]
*661 y_c\[4\]\.x_c\[2\]\.lc_i\.dff\.dffo_n
*662 y_c\[4\]\.x_c\[2\]\.lc_i\.i0
*663 y_c\[4\]\.x_c\[2\]\.lc_i\.i0a
*664 y_c\[4\]\.x_c\[2\]\.lc_i\.i0b
*665 y_c\[4\]\.x_c\[2\]\.lc_i\.i1
*666 y_c\[4\]\.x_c\[2\]\.lc_i\.i1a
*667 y_c\[4\]\.x_c\[2\]\.lc_i\.i1b
*668 y_c\[4\]\.x_c\[2\]\.lc_i\.muxo_n
*669 y_c\[4\]\.x_c\[2\]\.lc_i\.s0
*670 y_c\[4\]\.x_c\[2\]\.lc_i\.s0a
*671 y_c\[4\]\.x_c\[2\]\.lc_i\.s0b
*672 y_c\[4\]\.x_c\[2\]\.lc_i\.s0s
*673 y_c\[4\]\.x_c\[3\]\.lc_i\.B
*674 y_c\[4\]\.x_c\[3\]\.lc_i\.cfg\[0\]
*675 y_c\[4\]\.x_c\[3\]\.lc_i\.cfg\[1\]
*676 y_c\[4\]\.x_c\[3\]\.lc_i\.cfg\[2\]
*677 y_c\[4\]\.x_c\[3\]\.lc_i\.cfg\[3\]
*678 y_c\[4\]\.x_c\[3\]\.lc_i\.cfg\[4\]
*679 y_c\[4\]\.x_c\[3\]\.lc_i\.cfg\[5\]
*680 y_c\[4\]\.x_c\[3\]\.lc_i\.cfg\[6\]
*681 y_c\[4\]\.x_c\[3\]\.lc_i\.cfg\[7\]
*682 y_c\[4\]\.x_c\[3\]\.lc_i\.dff\.dffo_n
*683 y_c\[4\]\.x_c\[3\]\.lc_i\.i0
*684 y_c\[4\]\.x_c\[3\]\.lc_i\.i0a
*685 y_c\[4\]\.x_c\[3\]\.lc_i\.i0b
*686 y_c\[4\]\.x_c\[3\]\.lc_i\.i1
*687 y_c\[4\]\.x_c\[3\]\.lc_i\.i1a
*688 y_c\[4\]\.x_c\[3\]\.lc_i\.i1b
*689 y_c\[4\]\.x_c\[3\]\.lc_i\.muxo_n
*690 y_c\[4\]\.x_c\[3\]\.lc_i\.s0
*691 y_c\[4\]\.x_c\[3\]\.lc_i\.s0a
*692 y_c\[4\]\.x_c\[3\]\.lc_i\.s0b
*693 y_c\[4\]\.x_c\[3\]\.lc_i\.s0s
*694 y_c\[4\]\.x_c\[4\]\.lc_i\.B
*695 y_c\[4\]\.x_c\[4\]\.lc_i\.cfg\[0\]
*696 y_c\[4\]\.x_c\[4\]\.lc_i\.cfg\[1\]
*697 y_c\[4\]\.x_c\[4\]\.lc_i\.cfg\[2\]
*698 y_c\[4\]\.x_c\[4\]\.lc_i\.cfg\[3\]
*699 y_c\[4\]\.x_c\[4\]\.lc_i\.cfg\[4\]
*700 y_c\[4\]\.x_c\[4\]\.lc_i\.cfg\[5\]
*701 y_c\[4\]\.x_c\[4\]\.lc_i\.cfg\[6\]
*702 y_c\[4\]\.x_c\[4\]\.lc_i\.cfg\[7\]
*703 y_c\[4\]\.x_c\[4\]\.lc_i\.dff\.dffo_n
*704 y_c\[4\]\.x_c\[4\]\.lc_i\.i0
*705 y_c\[4\]\.x_c\[4\]\.lc_i\.i0a
*706 y_c\[4\]\.x_c\[4\]\.lc_i\.i0b
*707 y_c\[4\]\.x_c\[4\]\.lc_i\.i1
*708 y_c\[4\]\.x_c\[4\]\.lc_i\.i1a
*709 y_c\[4\]\.x_c\[4\]\.lc_i\.i1b
*710 y_c\[4\]\.x_c\[4\]\.lc_i\.muxo_n
*711 y_c\[4\]\.x_c\[4\]\.lc_i\.s0
*712 y_c\[4\]\.x_c\[4\]\.lc_i\.s0a
*713 y_c\[4\]\.x_c\[4\]\.lc_i\.s0b
*714 y_c\[4\]\.x_c\[4\]\.lc_i\.s0s
*715 y_c\[5\]\.x_c\[0\]\.lc_i\.L
*716 y_c\[5\]\.x_c\[0\]\.lc_i\.cfg\[0\]
*717 y_c\[5\]\.x_c\[0\]\.lc_i\.cfg\[1\]
*718 y_c\[5\]\.x_c\[0\]\.lc_i\.cfg\[2\]
*719 y_c\[5\]\.x_c\[0\]\.lc_i\.cfg\[3\]
*720 y_c\[5\]\.x_c\[0\]\.lc_i\.cfg\[4\]
*721 y_c\[5\]\.x_c\[0\]\.lc_i\.cfg\[5\]
*722 y_c\[5\]\.x_c\[0\]\.lc_i\.cfg\[6\]
*723 y_c\[5\]\.x_c\[0\]\.lc_i\.cfg\[7\]
*724 y_c\[5\]\.x_c\[0\]\.lc_i\.cfg_strb\[0\]
*725 y_c\[5\]\.x_c\[0\]\.lc_i\.cfg_strb\[1\]
*726 y_c\[5\]\.x_c\[0\]\.lc_i\.dff\.dffo_n
*727 y_c\[5\]\.x_c\[0\]\.lc_i\.i0
*728 y_c\[5\]\.x_c\[0\]\.lc_i\.i0a
*729 y_c\[5\]\.x_c\[0\]\.lc_i\.i0b
*730 y_c\[5\]\.x_c\[0\]\.lc_i\.i1
*731 y_c\[5\]\.x_c\[0\]\.lc_i\.i1a
*732 y_c\[5\]\.x_c\[0\]\.lc_i\.i1b
*733 y_c\[5\]\.x_c\[0\]\.lc_i\.muxo_n
*734 y_c\[5\]\.x_c\[0\]\.lc_i\.s0
*735 y_c\[5\]\.x_c\[0\]\.lc_i\.s0a
*736 y_c\[5\]\.x_c\[0\]\.lc_i\.s0b
*737 y_c\[5\]\.x_c\[0\]\.lc_i\.s0s
*738 y_c\[5\]\.x_c\[1\]\.lc_i\.cfg\[0\]
*739 y_c\[5\]\.x_c\[1\]\.lc_i\.cfg\[1\]
*740 y_c\[5\]\.x_c\[1\]\.lc_i\.cfg\[2\]
*741 y_c\[5\]\.x_c\[1\]\.lc_i\.cfg\[3\]
*742 y_c\[5\]\.x_c\[1\]\.lc_i\.cfg\[4\]
*743 y_c\[5\]\.x_c\[1\]\.lc_i\.cfg\[5\]
*744 y_c\[5\]\.x_c\[1\]\.lc_i\.cfg\[6\]
*745 y_c\[5\]\.x_c\[1\]\.lc_i\.cfg\[7\]
*746 y_c\[5\]\.x_c\[1\]\.lc_i\.dff\.dffo_n
*747 y_c\[5\]\.x_c\[1\]\.lc_i\.i0
*748 y_c\[5\]\.x_c\[1\]\.lc_i\.i0a
*749 y_c\[5\]\.x_c\[1\]\.lc_i\.i0b
*750 y_c\[5\]\.x_c\[1\]\.lc_i\.i1
*751 y_c\[5\]\.x_c\[1\]\.lc_i\.i1a
*752 y_c\[5\]\.x_c\[1\]\.lc_i\.i1b
*753 y_c\[5\]\.x_c\[1\]\.lc_i\.muxo_n
*754 y_c\[5\]\.x_c\[1\]\.lc_i\.s0
*755 y_c\[5\]\.x_c\[1\]\.lc_i\.s0a
*756 y_c\[5\]\.x_c\[1\]\.lc_i\.s0b
*757 y_c\[5\]\.x_c\[1\]\.lc_i\.s0s
*758 y_c\[5\]\.x_c\[2\]\.lc_i\.cfg\[0\]
*759 y_c\[5\]\.x_c\[2\]\.lc_i\.cfg\[1\]
*760 y_c\[5\]\.x_c\[2\]\.lc_i\.cfg\[2\]
*761 y_c\[5\]\.x_c\[2\]\.lc_i\.cfg\[3\]
*762 y_c\[5\]\.x_c\[2\]\.lc_i\.cfg\[4\]
*763 y_c\[5\]\.x_c\[2\]\.lc_i\.cfg\[5\]
*764 y_c\[5\]\.x_c\[2\]\.lc_i\.cfg\[6\]
*765 y_c\[5\]\.x_c\[2\]\.lc_i\.cfg\[7\]
*766 y_c\[5\]\.x_c\[2\]\.lc_i\.dff\.dffo_n
*767 y_c\[5\]\.x_c\[2\]\.lc_i\.i0
*768 y_c\[5\]\.x_c\[2\]\.lc_i\.i0a
*769 y_c\[5\]\.x_c\[2\]\.lc_i\.i0b
*770 y_c\[5\]\.x_c\[2\]\.lc_i\.i1
*771 y_c\[5\]\.x_c\[2\]\.lc_i\.i1a
*772 y_c\[5\]\.x_c\[2\]\.lc_i\.i1b
*773 y_c\[5\]\.x_c\[2\]\.lc_i\.muxo_n
*774 y_c\[5\]\.x_c\[2\]\.lc_i\.s0
*775 y_c\[5\]\.x_c\[2\]\.lc_i\.s0a
*776 y_c\[5\]\.x_c\[2\]\.lc_i\.s0b
*777 y_c\[5\]\.x_c\[2\]\.lc_i\.s0s
*778 y_c\[5\]\.x_c\[3\]\.lc_i\.cfg\[0\]
*779 y_c\[5\]\.x_c\[3\]\.lc_i\.cfg\[1\]
*780 y_c\[5\]\.x_c\[3\]\.lc_i\.cfg\[2\]
*781 y_c\[5\]\.x_c\[3\]\.lc_i\.cfg\[3\]
*782 y_c\[5\]\.x_c\[3\]\.lc_i\.cfg\[4\]
*783 y_c\[5\]\.x_c\[3\]\.lc_i\.cfg\[5\]
*784 y_c\[5\]\.x_c\[3\]\.lc_i\.cfg\[6\]
*785 y_c\[5\]\.x_c\[3\]\.lc_i\.cfg\[7\]
*786 y_c\[5\]\.x_c\[3\]\.lc_i\.dff\.dffo_n
*787 y_c\[5\]\.x_c\[3\]\.lc_i\.i0
*788 y_c\[5\]\.x_c\[3\]\.lc_i\.i0a
*789 y_c\[5\]\.x_c\[3\]\.lc_i\.i0b
*790 y_c\[5\]\.x_c\[3\]\.lc_i\.i1
*791 y_c\[5\]\.x_c\[3\]\.lc_i\.i1a
*792 y_c\[5\]\.x_c\[3\]\.lc_i\.i1b
*793 y_c\[5\]\.x_c\[3\]\.lc_i\.muxo_n
*794 y_c\[5\]\.x_c\[3\]\.lc_i\.s0
*795 y_c\[5\]\.x_c\[3\]\.lc_i\.s0a
*796 y_c\[5\]\.x_c\[3\]\.lc_i\.s0b
*797 y_c\[5\]\.x_c\[3\]\.lc_i\.s0s
*798 y_c\[5\]\.x_c\[4\]\.lc_i\.cfg\[0\]
*799 y_c\[5\]\.x_c\[4\]\.lc_i\.cfg\[1\]
*800 y_c\[5\]\.x_c\[4\]\.lc_i\.cfg\[2\]
*801 y_c\[5\]\.x_c\[4\]\.lc_i\.cfg\[3\]
*802 y_c\[5\]\.x_c\[4\]\.lc_i\.cfg\[4\]
*803 y_c\[5\]\.x_c\[4\]\.lc_i\.cfg\[5\]
*804 y_c\[5\]\.x_c\[4\]\.lc_i\.cfg\[6\]
*805 y_c\[5\]\.x_c\[4\]\.lc_i\.cfg\[7\]
*806 y_c\[5\]\.x_c\[4\]\.lc_i\.dff\.dffo_n
*807 y_c\[5\]\.x_c\[4\]\.lc_i\.i0
*808 y_c\[5\]\.x_c\[4\]\.lc_i\.i0a
*809 y_c\[5\]\.x_c\[4\]\.lc_i\.i0b
*810 y_c\[5\]\.x_c\[4\]\.lc_i\.i1
*811 y_c\[5\]\.x_c\[4\]\.lc_i\.i1a
*812 y_c\[5\]\.x_c\[4\]\.lc_i\.i1b
*813 y_c\[5\]\.x_c\[4\]\.lc_i\.muxo_n
*814 y_c\[5\]\.x_c\[4\]\.lc_i\.s0
*815 y_c\[5\]\.x_c\[4\]\.lc_i\.s0a
*816 y_c\[5\]\.x_c\[4\]\.lc_i\.s0b
*817 y_c\[5\]\.x_c\[4\]\.lc_i\.s0s
*818 ANTENNA_1
*819 ANTENNA_2
*820 FILLER_0_109
*821 FILLER_0_113
*822 FILLER_0_125
*823 FILLER_0_137
*824 FILLER_0_141
*825 FILLER_0_15
*826 FILLER_0_153
*827 FILLER_0_165
*828 FILLER_0_169
*829 FILLER_0_181
*830 FILLER_0_193
*831 FILLER_0_197
*832 FILLER_0_209
*833 FILLER_0_221
*834 FILLER_0_225
*835 FILLER_0_237
*836 FILLER_0_249
*837 FILLER_0_253
*838 FILLER_0_265
*839 FILLER_0_27
*840 FILLER_0_277
*841 FILLER_0_281
*842 FILLER_0_29
*843 FILLER_0_293
*844 FILLER_0_3
*845 FILLER_0_305
*846 FILLER_0_309
*847 FILLER_0_321
*848 FILLER_0_333
*849 FILLER_0_337
*850 FILLER_0_41
*851 FILLER_0_53
*852 FILLER_0_57
*853 FILLER_0_69
*854 FILLER_0_81
*855 FILLER_0_85
*856 FILLER_0_97
*857 FILLER_10_101
*858 FILLER_10_110
*859 FILLER_10_122
*860 FILLER_10_134
*861 FILLER_10_141
*862 FILLER_10_15
*863 FILLER_10_161
*864 FILLER_10_173
*865 FILLER_10_185
*866 FILLER_10_193
*867 FILLER_10_197
*868 FILLER_10_209
*869 FILLER_10_221
*870 FILLER_10_233
*871 FILLER_10_245
*872 FILLER_10_251
*873 FILLER_10_253
*874 FILLER_10_267
*875 FILLER_10_27
*876 FILLER_10_273
*877 FILLER_10_282
*878 FILLER_10_29
*879 FILLER_10_294
*880 FILLER_10_3
*881 FILLER_10_306
*882 FILLER_10_309
*883 FILLER_10_317
*884 FILLER_10_336
*885 FILLER_10_41
*886 FILLER_10_53
*887 FILLER_10_65
*888 FILLER_10_77
*889 FILLER_10_83
*890 FILLER_10_85
*891 FILLER_10_97
*892 FILLER_11_105
*893 FILLER_11_111
*894 FILLER_11_113
*895 FILLER_11_125
*896 FILLER_11_137
*897 FILLER_11_145
*898 FILLER_11_15
*899 FILLER_11_166
*900 FILLER_11_169
*901 FILLER_11_181
*902 FILLER_11_193
*903 FILLER_11_205
*904 FILLER_11_217
*905 FILLER_11_223
*906 FILLER_11_225
*907 FILLER_11_237
*908 FILLER_11_247
*909 FILLER_11_259
*910 FILLER_11_27
*911 FILLER_11_271
*912 FILLER_11_279
*913 FILLER_11_281
*914 FILLER_11_293
*915 FILLER_11_3
*916 FILLER_11_305
*917 FILLER_11_317
*918 FILLER_11_329
*919 FILLER_11_335
*920 FILLER_11_337
*921 FILLER_11_39
*922 FILLER_11_51
*923 FILLER_11_55
*924 FILLER_11_57
*925 FILLER_11_69
*926 FILLER_11_81
*927 FILLER_11_93
*928 FILLER_12_109
*929 FILLER_12_113
*930 FILLER_12_126
*931 FILLER_12_138
*932 FILLER_12_141
*933 FILLER_12_15
*934 FILLER_12_153
*935 FILLER_12_165
*936 FILLER_12_177
*937 FILLER_12_189
*938 FILLER_12_195
*939 FILLER_12_197
*940 FILLER_12_204
*941 FILLER_12_227
*942 FILLER_12_239
*943 FILLER_12_251
*944 FILLER_12_253
*945 FILLER_12_27
*946 FILLER_12_276
*947 FILLER_12_288
*948 FILLER_12_29
*949 FILLER_12_3
*950 FILLER_12_300
*951 FILLER_12_309
*952 FILLER_12_321
*953 FILLER_12_327
*954 FILLER_12_335
*955 FILLER_12_41
*956 FILLER_12_53
*957 FILLER_12_65
*958 FILLER_12_77
*959 FILLER_12_83
*960 FILLER_12_85
*961 FILLER_12_97
*962 FILLER_13_105
*963 FILLER_13_111
*964 FILLER_13_113
*965 FILLER_13_121
*966 FILLER_13_136
*967 FILLER_13_148
*968 FILLER_13_15
*969 FILLER_13_156
*970 FILLER_13_169
*971 FILLER_13_181
*972 FILLER_13_195