*SPEF "ieee 1481-1999"
*DESIGN "tt_um_ringosc_cnt_pfet"
*DATE "11:11:11 Fri 11 11, 1111"
*VENDOR "OpenRCX"
*PROGRAM "Parallel Extraction"
*VERSION "1.0"
*DESIGN_FLOW "NAME_SCOPE LOCAL" "PIN_CAP NONE"
*DIVIDER /
*DELIMITER :
*BUS_DELIMITER []
*T_UNIT 1 NS
*C_UNIT 1 PF
*R_UNIT 1 OHM
*L_UNIT 1 HENRY

*NAME_MAP
*1 clk
*2 ena
*3 rst_n
*4 ui_in[0]
*5 ui_in[1]
*6 ui_in[2]
*7 ui_in[3]
*8 ui_in[4]
*9 ui_in[5]
*10 ui_in[6]
*11 ui_in[7]
*12 uio_in[0]
*13 uio_in[1]
*14 uio_in[2]
*15 uio_in[3]
*16 uio_in[4]
*17 uio_in[5]
*18 uio_in[6]
*19 uio_in[7]
*20 net18
*21 net19
*22 net20
*23 net21
*24 net22
*25 net23
*26 net24
*27 net25
*28 net26
*29 net27
*30 net28
*31 net29
*32 net30
*33 net31
*34 net32
*35 net33
*36 uo_out[0]
*37 uo_out[1]
*38 uo_out[2]
*39 uo_out[3]
*40 uo_out[4]
*41 uo_out[5]
*42 uo_out[6]
*43 uo_out[7]
*46 _000_
*47 _001_
*48 _002_
*49 _003_
*50 _004_
*51 _005_
*52 _006_
*53 _007_
*54 _008_
*55 _009_
*56 _010_
*57 _011_
*58 _012_
*59 _013_
*60 _014_
*61 _015_
*62 _016_
*63 _017_
*64 _018_
*65 _019_
*66 _020_
*67 _021_
*68 _022_
*69 _023_
*70 _024_
*71 _025_
*72 _026_
*73 _027_
*74 _028_
*75 _029_
*76 _030_
*77 _031_
*78 _032_
*79 _033_
*80 _034_
*81 _035_
*82 _036_
*83 _037_
*84 _038_
*85 _039_
*86 _040_
*87 _041_
*88 _042_
*89 _043_
*90 _044_
*91 _045_
*92 _046_
*93 _047_
*94 _048_
*95 _049_
*96 _050_
*97 _051_
*98 _052_
*99 _053_
*100 _054_
*101 _055_
*102 _056_
*103 _057_
*104 _058_
*105 _059_
*106 _060_
*107 _061_
*108 _062_
*109 _063_
*110 _064_
*111 _065_
*112 _066_
*113 _067_
*114 _068_
*115 _069_
*116 _070_
*117 _071_
*118 _072_
*119 _073_
*120 _074_
*121 _075_
*122 _076_
*123 _077_
*124 _078_
*125 _079_
*126 _080_
*127 _081_
*128 _082_
*129 _083_
*130 _084_
*131 _085_
*132 _086_
*133 _087_
*134 _088_
*135 _089_
*136 _090_
*137 _091_
*138 _092_
*139 _093_
*140 _094_
*141 _095_
*142 _096_
*143 _097_
*144 _098_
*145 _099_
*146 _100_
*147 _101_
*148 _102_
*149 _103_
*150 _104_
*151 _105_
*152 _106_
*153 _107_
*154 _108_
*155 _109_
*156 _110_
*157 _111_
*158 _112_
*159 _113_
*160 _114_
*161 _115_
*162 _116_
*163 _117_
*164 _118_
*165 _119_
*166 _120_
*167 _121_
*168 _122_
*169 _123_
*170 _124_
*171 _125_
*172 _126_
*173 _127_
*174 _128_
*175 _129_
*176 _130_
*177 _131_
*178 _132_
*179 _133_
*180 _134_
*181 _135_
*182 _136_
*183 _137_
*184 _138_
*185 _139_
*186 _140_
*187 _141_
*188 _142_
*189 _143_
*190 _144_
*191 _145_
*192 _146_
*193 _147_
*194 _148_
*195 _149_
*196 _150_
*197 _151_
*198 _152_
*199 _153_
*200 _154_
*201 _155_
*202 _156_
*203 _157_
*204 _158_
*205 _159_
*206 _160_
*207 _161_
*208 _162_
*209 _163_
*210 _164_
*211 _165_
*212 _166_
*213 _167_
*214 _168_
*215 _169_
*216 _170_
*217 _171_
*218 _172_
*219 _173_
*220 _174_
*221 _175_
*222 _176_
*223 _177_
*224 _178_
*225 _179_
*226 _180_
*227 _181_
*228 _182_
*229 _183_
*230 _184_
*231 _185_
*232 _186_
*233 _187_
*234 _188_
*235 _189_
*236 _190_
*237 _191_
*238 _192_
*239 _193_
*240 _194_
*241 _195_
*242 _196_
*243 _197_
*244 _198_
*245 _199_
*246 _200_
*247 _201_
*248 _202_
*249 _203_
*250 _204_
*251 _205_
*252 counter\[0\]\.cnt_bit_I\.clk
*253 counter\[0\]\.cnt_bit_I\.d
*254 counter\[0\]\.cnt_bit_I\.q
*255 counter\[0\]\.cnt_bit_I\.rst_n
*256 counter\[10\]\.cnt_bit_I\.clk
*257 counter\[10\]\.cnt_bit_I\.d
*258 counter\[10\]\.cnt_bit_I\.q
*259 counter\[11\]\.cnt_bit_I\.d
*260 counter\[11\]\.cnt_bit_I\.q
*261 counter\[12\]\.cnt_bit_I\.d
*262 counter\[12\]\.cnt_bit_I\.q
*263 counter\[13\]\.cnt_bit_I\.d
*264 counter\[13\]\.cnt_bit_I\.q
*265 counter\[14\]\.cnt_bit_I\.d
*266 counter\[14\]\.cnt_bit_I\.q
*267 counter\[15\]\.cnt_bit_I\.d
*268 counter\[15\]\.cnt_bit_I\.q
*269 counter\[16\]\.cnt_bit_I\.d
*270 counter\[16\]\.cnt_bit_I\.q
*271 counter\[17\]\.cnt_bit_I\.d
*272 counter\[17\]\.cnt_bit_I\.q
*273 counter\[18\]\.cnt_bit_I\.d
*274 counter\[18\]\.cnt_bit_I\.q
*275 counter\[19\]\.cnt_bit_I\.d
*276 counter\[19\]\.cnt_bit_I\.q
*277 counter\[1\]\.cnt_bit_I\.d
*278 counter\[1\]\.cnt_bit_I\.q
*279 counter\[20\]\.cnt_bit_I\.d
*280 counter\[20\]\.cnt_bit_I\.q
*281 counter\[21\]\.cnt_bit_I\.d
*282 counter\[21\]\.cnt_bit_I\.q
*283 counter\[22\]\.cnt_bit_I\.d
*284 counter\[22\]\.cnt_bit_I\.q
*285 counter\[23\]\.cnt_bit_I\.d
*286 counter\[23\]\.cnt_bit_I\.q
*287 counter\[24\]\.cnt_bit_I\.d
*288 counter\[24\]\.cnt_bit_I\.q
*289 counter\[25\]\.cnt_bit_I\.d
*290 counter\[25\]\.cnt_bit_I\.q
*291 counter\[26\]\.cnt_bit_I\.d
*292 counter\[26\]\.cnt_bit_I\.q
*293 counter\[27\]\.cnt_bit_I\.d
*294 counter\[27\]\.cnt_bit_I\.q
*295 counter\[28\]\.cnt_bit_I\.d
*296 counter\[28\]\.cnt_bit_I\.q
*297 counter\[29\]\.cnt_bit_I\.d
*298 counter\[29\]\.cnt_bit_I\.q
*299 counter\[2\]\.cnt_bit_I\.d
*300 counter\[2\]\.cnt_bit_I\.q
*301 counter\[30\]\.cnt_bit_I\.d
*302 counter\[30\]\.cnt_bit_I\.q
*303 counter\[31\]\.cnt_bit_I\.d
*304 counter\[31\]\.cnt_bit_I\.q
*305 counter\[32\]\.cnt_bit_I\.d
*306 counter\[32\]\.cnt_bit_I\.q
*307 counter\[33\]\.cnt_bit_I\.d
*308 counter\[33\]\.cnt_bit_I\.q
*309 counter\[34\]\.cnt_bit_I\.d
*310 counter\[34\]\.cnt_bit_I\.q
*311 counter\[35\]\.cnt_bit_I\.d
*312 counter\[35\]\.cnt_bit_I\.q
*313 counter\[36\]\.cnt_bit_I\.d
*314 counter\[36\]\.cnt_bit_I\.q
*315 counter\[37\]\.cnt_bit_I\.d
*316 counter\[37\]\.cnt_bit_I\.q
*317 counter\[38\]\.cnt_bit_I\.d
*318 counter\[38\]\.cnt_bit_I\.q
*319 counter\[39\]\.cnt_bit_I\.d
*320 counter\[39\]\.cnt_bit_I\.q
*321 counter\[3\]\.cnt_bit_I\.d
*322 counter\[3\]\.cnt_bit_I\.q
*323 counter\[40\]\.cnt_bit_I\.d
*324 counter\[40\]\.cnt_bit_I\.q
*325 counter\[41\]\.cnt_bit_I\.d
*326 counter\[41\]\.cnt_bit_I\.q
*327 counter\[42\]\.cnt_bit_I\.d
*328 counter\[42\]\.cnt_bit_I\.q
*329 counter\[43\]\.cnt_bit_I\.d
*330 counter\[43\]\.cnt_bit_I\.q
*331 counter\[44\]\.cnt_bit_I\.d
*332 counter\[44\]\.cnt_bit_I\.q
*333 counter\[45\]\.cnt_bit_I\.d
*334 counter\[45\]\.cnt_bit_I\.q
*335 counter\[46\]\.cnt_bit_I\.d
*336 counter\[46\]\.cnt_bit_I\.q
*337 counter\[47\]\.cnt_bit_I\.d
*338 counter\[47\]\.cnt_bit_I\.q
*339 counter\[48\]\.cnt_bit_I\.d
*340 counter\[48\]\.cnt_bit_I\.q
*341 counter\[49\]\.cnt_bit_I\.d
*342 counter\[49\]\.cnt_bit_I\.q
*343 counter\[4\]\.cnt_bit_I\.d
*344 counter\[4\]\.cnt_bit_I\.q
*345 counter\[50\]\.cnt_bit_I\.d
*346 counter\[50\]\.cnt_bit_I\.q
*347 counter\[51\]\.cnt_bit_I\.d
*348 counter\[51\]\.cnt_bit_I\.q
*349 counter\[52\]\.cnt_bit_I\.d
*350 counter\[52\]\.cnt_bit_I\.q
*351 counter\[53\]\.cnt_bit_I\.d
*352 counter\[53\]\.cnt_bit_I\.q
*353 counter\[54\]\.cnt_bit_I\.d
*354 counter\[54\]\.cnt_bit_I\.q
*355 counter\[55\]\.cnt_bit_I\.d
*356 counter\[55\]\.cnt_bit_I\.q
*357 counter\[56\]\.cnt_bit_I\.d
*358 counter\[56\]\.cnt_bit_I\.q
*359 counter\[57\]\.cnt_bit_I\.d
*360 counter\[57\]\.cnt_bit_I\.q
*361 counter\[58\]\.cnt_bit_I\.d
*362 counter\[58\]\.cnt_bit_I\.q
*363 counter\[59\]\.cnt_bit_I\.d
*364 counter\[59\]\.cnt_bit_I\.q
*365 counter\[5\]\.cnt_bit_I\.d
*366 counter\[5\]\.cnt_bit_I\.q
*367 counter\[60\]\.cnt_bit_I\.d
*368 counter\[60\]\.cnt_bit_I\.q
*369 counter\[61\]\.cnt_bit_I\.d
*370 counter\[61\]\.cnt_bit_I\.q
*371 counter\[62\]\.cnt_bit_I\.d
*372 counter\[62\]\.cnt_bit_I\.q
*373 counter\[63\]\.cnt_bit_I\.d
*374 counter\[63\]\.cnt_bit_I\.q
*375 counter\[6\]\.cnt_bit_I\.d
*376 counter\[6\]\.cnt_bit_I\.q
*377 counter\[7\]\.cnt_bit_I\.d
*378 counter\[7\]\.cnt_bit_I\.q
*379 counter\[8\]\.cnt_bit_I\.d
*380 counter\[8\]\.cnt_bit_I\.q
*381 counter\[9\]\.cnt_bit_I\.q
*382 net1
*383 net10
*384 net11
*385 net12
*386 net13
*387 net14
*388 net15
*389 net16
*390 net17
*391 net2
*392 net3
*393 net4
*394 net5
*395 net6
*396 net7
*397 net8
*398 net9
*399 ringosc\[0\]\.inv\.a
*400 ringosc\[10\]\.inv\.a
*401 ringosc\[10\]\.inv\.y
*402 ringosc\[11\]\.inv\.y
*403 ringosc\[12\]\.inv\.y
*404 ringosc\[1\]\.inv\.y
*405 ringosc\[2\]\.inv\.y
*406 ringosc\[3\]\.inv\.y
*407 ringosc\[4\]\.inv\.y
*408 ringosc\[5\]\.inv\.y
*409 ringosc\[6\]\.inv\.y
*410 ringosc\[7\]\.inv\.y
*411 ringosc\[8\]\.inv\.y
*412 FILLER_0_109
*413 FILLER_0_113
*414 FILLER_0_125
*415 FILLER_0_137
*416 FILLER_0_141
*417 FILLER_0_15
*418 FILLER_0_153
*419 FILLER_0_165
*420 FILLER_0_169
*421 FILLER_0_181
*422 FILLER_0_193
*423 FILLER_0_197
*424 FILLER_0_209
*425 FILLER_0_221
*426 FILLER_0_225
*427 FILLER_0_237
*428 FILLER_0_249
*429 FILLER_0_253
*430 FILLER_0_265
*431 FILLER_0_27
*432 FILLER_0_277
*433 FILLER_0_281
*434 FILLER_0_29
*435 FILLER_0_293
*436 FILLER_0_3
*437 FILLER_0_305
*438 FILLER_0_309
*439 FILLER_0_321
*440 FILLER_0_333
*441 FILLER_0_337
*442 FILLER_0_41
*443 FILLER_0_53
*444 FILLER_0_57
*445 FILLER_0_69
*446 FILLER_0_81
*447 FILLER_0_85
*448 FILLER_0_97
*449 FILLER_10_109
*450 FILLER_10_121
*451 FILLER_10_133
*452 FILLER_10_139
*453 FILLER_10_141
*454 FILLER_10_15
*455 FILLER_10_176
*456 FILLER_10_188
*457 FILLER_10_197
*458 FILLER_10_209
*459 FILLER_10_221
*460 FILLER_10_233
*461 FILLER_10_245
*462 FILLER_10_251
*463 FILLER_10_253
*464 FILLER_10_265
*465 FILLER_10_27
*466 FILLER_10_277
*467 FILLER_10_289
*468 FILLER_10_29
*469 FILLER_10_3
*470 FILLER_10_301
*471 FILLER_10_307
*472 FILLER_10_309
*473 FILLER_10_321
*474 FILLER_10_333
*475 FILLER_10_337
*476 FILLER_10_41
*477 FILLER_10_53
*478 FILLER_10_65
*479 FILLER_10_77
*480 FILLER_10_83
*481 FILLER_10_85
*482 FILLER_10_97
*483 FILLER_11_105
*484 FILLER_11_111
*485 FILLER_11_113
*486 FILLER_11_125
*487 FILLER_11_137
*488 FILLER_11_15
*489 FILLER_11_166
*490 FILLER_11_169
*491 FILLER_11_177
*492 FILLER_11_203
*493 FILLER_11_215
*494 FILLER_11_223
*495 FILLER_11_225
*496 FILLER_11_237
*497 FILLER_11_249
*498 FILLER_11_261
*499 FILLER_11_27
*500 FILLER_11_273
*501 FILLER_11_279
*502 FILLER_11_281
*503 FILLER_11_293
*504 FILLER_11_3
*505 FILLER_11_305
*506 FILLER_11_317
*507 FILLER_11_329
*508 FILLER_11_335
*509 FILLER_11_337
*510 FILLER_11_39
*511 FILLER_11_51
*512 FILLER_11_55
*513 FILLER_11_57
*514 FILLER_11_69
*515 FILLER_11_81
*516 FILLER_11_93
*517 FILLER_12_109
*518 FILLER_12_133
*519 FILLER_12_139
*520 FILLER_12_141
*521 FILLER_12_15
*522 FILLER_12_164
*523 FILLER_12_170
*524 FILLER_12_194
*525 FILLER_12_197
*526 FILLER_12_222
*527 FILLER_12_234
*528 FILLER_12_246
*529 FILLER_12_253
*530 FILLER_12_27
*531 FILLER_12_278
*532 FILLER_12_29
*533 FILLER_12_290
*534 FILLER_12_3
*535 FILLER_12_302
*536 FILLER_12_309
*537 FILLER_12_321
*538 FILLER_12_333
*539 FILLER_12_337
*540 FILLER_12_41
*541 FILLER_12_53
*542 FILLER_12_65
*543 FILLER_12_77
*544 FILLER_12_83
*545 FILLER_12_85
*546 FILLER_12_97
*547 FILLER_13_102
*548 FILLER_13_110
*549 FILLER_13_113
*550 FILLER_13_144
*551 FILLER_13_15
*552 FILLER_13_156
*553 FILLER_13_169
*554 FILLER_13_194
*555 FILLER_13_198
*556 FILLER_13_222
*557 FILLER_13_225
*558 FILLER_13_250
*559 FILLER_13_27
*560 FILLER_13_277
*561 FILLER_13_281
*562 FILLER_13_293
*563 FILLER_13_3
*564 FILLER_13_305
*565 FILLER_13_317
*566 FILLER_13_329
*567 FILLER_13_335
*568 FILLER_13_337
*569 FILLER_13_39
*570 FILLER_13_51
*571 FILLER_13_55
*572 FILLER_13_57
*573 FILLER_13_69
*574 FILLER_13_77
*575 FILLER_14_126
*576 FILLER_14_138
*577 FILLER_14_141
*578 FILLER_14_15
*579 FILLER_14_153
*580 FILLER_14_177
*581 FILLER_14_189
*582 FILLER_14_195
*583 FILLER_14_197
*584 FILLER_14_209
*585 FILLER_14_213
*586 FILLER_14_237
*587 FILLER_14_249
*588 FILLER_14_253
*589 FILLER_14_261
*590 FILLER_14_27
*591 FILLER_14_286
*592 FILLER_14_29
*593 FILLER_14_298
*594 FILLER_14_3
*595 FILLER_14_306
*596 FILLER_14_309
*597 FILLER_14_321
*598 FILLER_14_333
*599 FILLER_14_337
*600 FILLER_14_41
*601 FILLER_14_53
*602 FILLER_14_65
*603 FILLER_14_77
*604 FILLER_14_83
*605 FILLER_14_85
*606 FILLER_14_97
*607 FILLER_15_110
*608 FILLER_15_113
*609 FILLER_15_119
*610 FILLER_15_141
*611 FILLER_15_15
*612 FILLER_15_166
*613 FILLER_15_169
*614 FILLER_15_181
*615 FILLER_15_205
*616 FILLER_15_217
*617 FILLER_15_223
*618 FILLER_15_225
*619 FILLER_15_237
*620 FILLER_15_27
*621 FILLER_15_270
*622 FILLER_15_278
*623 FILLER_15_281
*624 FILLER_15_3
*625 FILLER_15_306
*626 FILLER_15_318
*627 FILLER_15_330
*628 FILLER_15_337
*629 FILLER_15_39
*630 FILLER_15_51
*631 FILLER_15_55
*632 FILLER_15_57
*633 FILLER_15_69
*634 FILLER_15_81
*635 FILLER_16_118
*636 FILLER_16_130
*637 FILLER_16_138
*638 FILLER_16_141
*639 FILLER_16_15
*640 FILLER_16_164
*641 FILLER_16_168
*642 FILLER_16_190
*643 FILLER_16_197
*644 FILLER_16_220
*645 FILLER_16_232
*646 FILLER_16_244
*647 FILLER_16_253
*648 FILLER_16_265
*649 FILLER_16_27
*650 FILLER_16_29
*651 FILLER_16_296
*652 FILLER_16_3
*653 FILLER_16_309
*654 FILLER_16_332
*655 FILLER_16_41
*656 FILLER_16_53
*657 FILLER_16_80
*658 FILLER_16_85
*659 FILLER_16_93
*660 FILLER_17_103
*661 FILLER_17_111
*662 FILLER_17_113
*663 FILLER_17_121
*664 FILLER_17_145
*665 FILLER_17_15
*666 FILLER_17_157
*667 FILLER_17_165
*668 FILLER_17_169
*669 FILLER_17_181
*670 FILLER_17_193
*671 FILLER_17_215
*672 FILLER_17_223
*673 FILLER_17_225
*674 FILLER_17_248
*675 FILLER_17_252
*676 FILLER_17_27
*677 FILLER_17_274
*678 FILLER_17_281
*679 FILLER_17_287
*680 FILLER_17_3
*681 FILLER_17_311
*682 FILLER_17_323
*683 FILLER_17_335
*684 FILLER_17_337
*685 FILLER_17_39
*686 FILLER_17_51
*687 FILLER_17_55
*688 FILLER_17_57
*689 FILLER_17_65
*690 FILLER_17_91
*691 FILLER_18_124
*692 FILLER_18_136
*693 FILLER_18_141
*694 FILLER_18_149
*695 FILLER_18_15
*696 FILLER_18_161
*697 FILLER_18_186
*698 FILLER_18_194
*699 FILLER_18_197
*700 FILLER_18_228
*701 FILLER_18_240
*702 FILLER_18_253
*703 FILLER_18_27
*704 FILLER_18_276
*705 FILLER_18_29
*706 FILLER_18_3
*707 FILLER_18_301
*708 FILLER_18_307
*709 FILLER_18_309
*710 FILLER_18_334
*711 FILLER_18_41
*712 FILLER_18_45
*713 FILLER_18_69
*714 FILLER_18_81
*715 FILLER_18_85
*716 FILLER_18_97
*717 FILLER_19_110
*718 FILLER_19_113
*719 FILLER_19_125
*720 FILLER_19_131
*721 FILLER_19_15
*722 FILLER_19_153
*723 FILLER_19_165
*724 FILLER_19_169
*725 FILLER_19_192
*726 FILLER_19_202
*727 FILLER_19_214
*728 FILLER_19_222
*729 FILLER_19_225
*730 FILLER_19_248
*731 FILLER_19_256
*732 FILLER_19_27
*733 FILLER_19_278
*734 FILLER_19_281
*735 FILLER_19_3
*736 FILLER_19_304
*737 FILLER_19_310
*738 FILLER_19_334
*739 FILLER_19_337
*740 FILLER_19_54
*741 FILLER_19_57
*742 FILLER_19_61
*743 FILLER_19_83
*744 FILLER_1_105
*745 FILLER_1_111
*746 FILLER_1_113
*747 FILLER_1_125
*748 FILLER_1_137
*749 FILLER_1_149
*750 FILLER_1_15
*751 FILLER_1_161
*752 FILLER_1_167
*753 FILLER_1_169
*754 FILLER_1_181
*755 FILLER_1_193
*756 FILLER_1_205
*757 FILLER_1_217
*758 FILLER_1_223
*759 FILLER_1_225
*760 FILLER_1_237
*761 FILLER_1_249
*762 FILLER_1_261
*763 FILLER_1_27
*764 FILLER_1_273
*765 FILLER_1_279
*766 FILLER_1_281
*767 FILLER_1_293
*768 FILLER_1_3
*769 FILLER_1_305
*770 FILLER_1_317
*771 FILLER_1_329
*772 FILLER_1_335
*773 FILLER_1_337
*774 FILLER_1_39
*775 FILLER_1_51
*776 FILLER_1_55
*777 FILLER_1_57
*778 FILLER_1_69
*779 FILLER_1_81
*780 FILLER_1_93
*781 FILLER_20_110
*782 FILLER_20_137
*783 FILLER_20_141
*784 FILLER_20_15
*785 FILLER_20_153
*786 FILLER_20_157
*787 FILLER_20_164
*788 FILLER_20_177
*789 FILLER_20_187
*790 FILLER_20_195
*791 FILLER_20_197
*792 FILLER_20_205
*793 FILLER_20_234
*794 FILLER_20_240
*795 FILLER_20_250
*796 FILLER_20_253
*797 FILLER_20_264
*798 FILLER_20_27
*799 FILLER_20_270
*800 FILLER_20_29
*801 FILLER_20_292
*802 FILLER_20_3
*803 FILLER_20_304
*804 FILLER_20_309
*805 FILLER_20_332
*806 FILLER_20_41
*807 FILLER_20_53
*808 FILLER_20_61
*809 FILLER_20_82
*810 FILLER_20_85
*811 FILLER_21_105
*812 FILLER_21_111
*813 FILLER_21_113
*814 FILLER_21_125
*815 FILLER_21_15
*816 FILLER_21_150
*817 FILLER_21_156
*818 FILLER_21_166
*819 FILLER_21_169
*820 FILLER_21_180
*821 FILLER_21_19
*822 FILLER_21_191
*823 FILLER_21_220
*824 FILLER_21_225
*825 FILLER_21_235
*826 FILLER_21_243
*827 FILLER_21_265
*828 FILLER_21_278
*829 FILLER_21_281
*830 FILLER_21_292
*831 FILLER_21_3
*832 FILLER_21_304
*833 FILLER_21_310
*834 FILLER_21_334
*835 FILLER_21_337
*836 FILLER_21_43
*837 FILLER_21_55
*838 FILLER_21_57
*839 FILLER_21_69
*840 FILLER_21_95
*841 FILLER_22_113
*842 FILLER_22_138
*843 FILLER_22_141
*844 FILLER_22_15
*845 FILLER_22_153
*846 FILLER_22_174
*847 FILLER_22_182
*848 FILLER_22_190
*849 FILLER_22_197
*850 FILLER_22_205
*851 FILLER_22_217
*852 FILLER_22_226
*853 FILLER_22_240
*854 FILLER_22_248
*855 FILLER_22_253
*856 FILLER_22_265
*857 FILLER_22_27
*858 FILLER_22_278
*859 FILLER_22_29
*860 FILLER_22_291
*861 FILLER_22_3
*862 FILLER_22_303
*863 FILLER_22_307
*864 FILLER_22_309
*865 FILLER_22_332
*866 FILLER_22_41
*867 FILLER_22_53
*868 FILLER_22_82
*869 FILLER_22_85
*870 FILLER_22_91
*871 FILLER_23_110
*872 FILLER_23_113
*873 FILLER_23_125
*874 FILLER_23_154
*875 FILLER_23_166
*876 FILLER_23_169
*877 FILLER_23_175
*878 FILLER_23_188
*879 FILLER_23_198
*880 FILLER_23_210
*881 FILLER_23_222
*882 FILLER_23_225
*883 FILLER_23_235
*884 FILLER_23_246
*885 FILLER_23_254
*886 FILLER_23_276
*887 FILLER_23_281
*888 FILLER_23_290
*889 FILLER_23_3
*890 FILLER_23_303
*891 FILLER_23_32
*892 FILLER_23_330
*893 FILLER_23_337
*894 FILLER_23_44
*895 FILLER_23_57
*896 FILLER_23_82
*897 FILLER_23_88
*898 FILLER_24_126
*899 FILLER_24_138
*900 FILLER_24_141
*901 FILLER_24_15
*902 FILLER_24_162
*903 FILLER_24_175
*904 FILLER_24_188
*905 FILLER_24_197
*906 FILLER_24_208
*907 FILLER_24_218
*908 FILLER_24_222
*909 FILLER_24_229
*910 FILLER_24_239
*911 FILLER_24_251
*912 FILLER_24_253
*913 FILLER_24_264
*914 FILLER_24_27
*915 FILLER_24_274
*916 FILLER_24_278
*917 FILLER_24_287
*918 FILLER_24_29
*919 FILLER_24_298
*920 FILLER_24_3
*921 FILLER_24_302
*922 FILLER_24_306
*923 FILLER_24_309
*924 FILLER_24_334
*925 FILLER_24_41
*926 FILLER_24_68
*927 FILLER_24_80
*928 FILLER_24_85
*929 FILLER_24_97
*930 FILLER_25_110
*931 FILLER_25_113
*932 FILLER_25_125
*933 FILLER_25_133
*934 FILLER_25_157
*935 FILLER_25_165
*936 FILLER_25_169
*937 FILLER_25_180
*938 FILLER_25_190
*939 FILLER_25_198
*940 FILLER_25_204
*941 FILLER_25_217
*942 FILLER_25_223
*943 FILLER_25_225
*944 FILLER_25_233
*945 FILLER_25_243
*946 FILLER_25_251
*947 FILLER_25_258
*948 FILLER_25_271
*949 FILLER_25_278
*950 FILLER_25_28
*951 FILLER_25_281
*952 FILLER_25_292
*953 FILLER_25_298
*954 FILLER_25_3
*955 FILLER_25_305
*956 FILLER_25_316
*957 FILLER_25_320
*958 FILLER_25_330
*959 FILLER_25_337
*960 FILLER_25_54
*961 FILLER_25_57
*962 FILLER_25_82
*963 FILLER_25_88
*964 FILLER_26_101
*965 FILLER_26_123
*966 FILLER_26_131
*967 FILLER_26_138
*968 FILLER_26_141
*969 FILLER_26_145
*970 FILLER_26_15
*971 FILLER_26_152
*972 FILLER_26_163
*973 FILLER_26_176
*974 FILLER_26_189
*975 FILLER_26_195
*976 FILLER_26_197
*977 FILLER_26_214
*978 FILLER_26_220
*979 FILLER_26_229
*980 FILLER_26_237
*981 FILLER_26_250
*982 FILLER_26_253
*983 FILLER_26_27
*984 FILLER_26_277
*985 FILLER_26_29
*986 FILLER_26_294
*987 FILLER_26_3
*988 FILLER_26_302
*989 FILLER_26_309
*990 FILLER_26_317
*991 FILLER_26_328
*992 FILLER_26_335
*993 FILLER_26_41
*994 FILLER_26_65
*995 FILLER_26_77
*996 FILLER_26_83
*997 FILLER_26_85
*998 FILLER_26_97
*999 FILLER_27_110
*1000 FILLER_27_113
*1001 FILLER_27_125
*1002 FILLER_27_150
*1003 FILLER_27_156
*1004 FILLER_27_166
*1005 FILLER_27_169
*1006 FILLER_27_180
*1007 FILLER_27_193
*1008 FILLER_27_203
*1009 FILLER_27_215
*1010 FILLER_27_222
*1011 FILLER_27_225
*1012 FILLER_27_233
*1013 FILLER_27_245
*1014 FILLER_27_253
*1015 FILLER_27_262
*1016 FILLER_27_277
*1017 FILLER_27_281
*1018 FILLER_27_293
*1019 FILLER_27_3
*1020 FILLER_27_300
*1021 FILLER_27_31
*1022 FILLER_27_327
*1023 FILLER_27_334
*1024 FILLER_27_337
*1025 FILLER_27_43
*1026 FILLER_27_55
*1027 FILLER_27_57
*1028 FILLER_27_7
*1029 FILLER_27_82
*1030 FILLER_27_88
*1031 FILLER_28_108
*1032 FILLER_28_133
*1033 FILLER_28_139
*1034 FILLER_28_141
*1035 FILLER_28_15
*1036 FILLER_28_164
*1037 FILLER_28_172
*1038 FILLER_28_188
*1039 FILLER_28_197
*1040 FILLER_28_208
*1041 FILLER_28_218
*1042 FILLER_28_231
*1043 FILLER_28_247
*1044 FILLER_28_251
*1045 FILLER_28_253
*1046 FILLER_28_261
*1047 FILLER_28_27
*1048 FILLER_28_273
*1049 FILLER_28_285
*1050 FILLER_28_29
*1051 FILLER_28_297
*1052 FILLER_28_3
*1053 FILLER_28_305
*1054 FILLER_28_309
*1055 FILLER_28_332
*1056 FILLER_28_41
*1057 FILLER_28_45
*1058 FILLER_28_69
*1059 FILLER_28_81
*1060 FILLER_28_85
*1061 FILLER_29_107
*1062 FILLER_29_111
*1063 FILLER_29_113
*1064 FILLER_29_125
*1065 FILLER_29_148
*1066 FILLER_29_156
*1067 FILLER_29_166
*1068 FILLER_29_169
*1069 FILLER_29_175
*1070 FILLER_29_188
*1071 FILLER_29_201
*1072 FILLER_29_218
*1073 FILLER_29_225
*1074 FILLER_29_236
*1075 FILLER_29_244
*1076 FILLER_29_253
*1077 FILLER_29_259
*1078 FILLER_29_265
*1079 FILLER_29_271
*1080 FILLER_29_278
*1081 FILLER_29_281
*1082 FILLER_29_287
*1083 FILLER_29_3
*1084 FILLER_29_31
*1085 FILLER_29_314
*1086 FILLER_29_321
*1087 FILLER_29_328
*1088 FILLER_29_337
*1089 FILLER_29_43
*1090 FILLER_29_55
*1091 FILLER_29_57
*1092 FILLER_29_7
*1093 FILLER_29_82
*1094 FILLER_2_109
*1095 FILLER_2_121
*1096 FILLER_2_133
*1097 FILLER_2_139
*1098 FILLER_2_141
*1099 FILLER_2_15
*1100 FILLER_2_153
*1101 FILLER_2_165
*1102 FILLER_2_177
*1103 FILLER_2_189
*1104 FILLER_2_195
*1105 FILLER_2_197
*1106 FILLER_2_209
*1107 FILLER_2_221
*1108 FILLER_2_233
*1109 FILLER_2_245
*1110 FILLER_2_251
*1111 FILLER_2_253
*1112 FILLER_2_265
*1113 FILLER_2_27
*1114 FILLER_2_277
*1115 FILLER_2_289
*1116 FILLER_2_29
*1117 FILLER_2_3
*1118 FILLER_2_301
*1119 FILLER_2_307
*1120 FILLER_2_309
*1121 FILLER_2_321
*1122 FILLER_2_333
*1123 FILLER_2_337
*1124 FILLER_2_41
*1125 FILLER_2_53
*1126 FILLER_2_65
*1127 FILLER_2_77
*1128 FILLER_2_83
*1129 FILLER_2_85
*1130 FILLER_2_97
*1131 FILLER_30_122
*1132 FILLER_30_134
*1133 FILLER_30_141
*1134 FILLER_30_15
*1135 FILLER_30_164
*1136 FILLER_30_177
*1137 FILLER_30_187
*1138 FILLER_30_195
*1139 FILLER_30_197
*1140 FILLER_30_205
*1141 FILLER_30_211
*1142 FILLER_30_230
*1143 FILLER_30_240
*1144 FILLER_30_250
*1145 FILLER_30_253
*1146 FILLER_30_263
*1147 FILLER_30_269
*1148 FILLER_30_27
*1149 FILLER_30_276
*1150 FILLER_30_286
*1151 FILLER_30_29
*1152 FILLER_30_296
*1153 FILLER_30_3
*1154 FILLER_30_304
*1155 FILLER_30_309
*1156 FILLER_30_315
*1157 FILLER_30_322
*1158 FILLER_30_329
*1159 FILLER_30_336
*1160 FILLER_30_41
*1161 FILLER_30_70
*1162 FILLER_30_82
*1163 FILLER_30_85
*1164 FILLER_30_97
*1165 FILLER_31_107
*1166 FILLER_31_111
*1167 FILLER_31_113
*1168 FILLER_31_121
*1169 FILLER_31_143
*1170 FILLER_31_151
*1171 FILLER_31_162
*1172 FILLER_31_169
*1173 FILLER_31_180
*1174 FILLER_31_184
*1175 FILLER_31_191
*1176 FILLER_31_199
*1177 FILLER_31_214
*1178 FILLER_31_222
*1179 FILLER_31_225
*1180 FILLER_31_236
*1181 FILLER_31_246
*1182 FILLER_31_250
*1183 FILLER_31_260
*1184 FILLER_31_273
*1185 FILLER_31_279
*1186 FILLER_31_281
*1187 FILLER_31_3
*1188 FILLER_31_306
*1189 FILLER_31_331
*1190 FILLER_31_335
*1191 FILLER_31_337
*1192 FILLER_31_34
*1193 FILLER_31_46
*1194 FILLER_31_54
*1195 FILLER_31_57
*1196 FILLER_31_82
*1197 FILLER_32_110
*1198 FILLER_32_116
*1199 FILLER_32_138
*1200 FILLER_32_141
*1201 FILLER_32_15
*1202 FILLER_32_164
*1203 FILLER_32_177
*1204 FILLER_32_194
*1205 FILLER_32_197
*1206 FILLER_32_205
*1207 FILLER_32_216
*1208 FILLER_32_229
*1209 FILLER_32_239
*1210 FILLER_32_249
*1211 FILLER_32_253
*1212 FILLER_32_264
*1213 FILLER_32_27
*1214 FILLER_32_276
*1215 FILLER_32_29
*1216 FILLER_32_3
*1217 FILLER_32_303
*1218 FILLER_32_307
*1219 FILLER_32_309
*1220 FILLER_32_315
*1221 FILLER_32_322
*1222 FILLER_32_329
*1223 FILLER_32_336
*1224 FILLER_32_54
*1225 FILLER_32_58
*1226 FILLER_32_82
*1227 FILLER_32_85
*1228 FILLER_33_110
*1229 FILLER_33_113
*1230 FILLER_33_119
*1231 FILLER_33_127
*1232 FILLER_33_149
*1233 FILLER_33_166
*1234 FILLER_33_169
*1235 FILLER_33_177
*1236 FILLER_33_193
*1237 FILLER_33_203
*1238 FILLER_33_221
*1239 FILLER_33_225
*1240 FILLER_33_231
*1241 FILLER_33_246
*1242 FILLER_33_254
*1243 FILLER_33_260
*1244 FILLER_33_272
*1245 FILLER_33_28
*1246 FILLER_33_281
*1247 FILLER_33_286
*1248 FILLER_33_3
*1249 FILLER_33_313
*1250 FILLER_33_320
*1251 FILLER_33_327
*1252 FILLER_33_334
*1253 FILLER_33_337
*1254 FILLER_33_40
*1255 FILLER_33_52
*1256 FILLER_33_57
*1257 FILLER_33_82
*1258 FILLER_33_86
*1259 FILLER_34_122
*1260 FILLER_34_129
*1261 FILLER_34_136
*1262 FILLER_34_141
*1263 FILLER_34_153
*1264 FILLER_34_165
*1265 FILLER_34_175
*1266 FILLER_34_188
*1267 FILLER_34_197
*1268 FILLER_34_20
*1269 FILLER_34_205
*1270 FILLER_34_216
*1271 FILLER_34_227
*1272 FILLER_34_238
*1273 FILLER_34_248
*1274 FILLER_34_253
*1275 FILLER_34_261
*1276 FILLER_34_271
*1277 FILLER_34_281
*1278 FILLER_34_29
*1279 FILLER_34_291
*1280 FILLER_34_3
*1281 FILLER_34_301
*1282 FILLER_34_307
*1283 FILLER_34_309
*1284 FILLER_34_315
*1285 FILLER_34_323
*1286 FILLER_34_330
*1287 FILLER_34_40
*1288 FILLER_34_48
*1289 FILLER_34_54
*1290 FILLER_34_61
*1291 FILLER_34_68
*1292 FILLER_34_78
*1293 FILLER_34_8
*1294 FILLER_34_85
*1295 FILLER_34_91
*1296 FILLER_34_95
*1297 FILLER_35_108
*1298 FILLER_35_113
*1299 FILLER_35_12
*1300 FILLER_35_138
*1301 FILLER_35_141
*1302 FILLER_35_153
*1303 FILLER_35_165
*1304 FILLER_35_169
*1305 FILLER_35_178
*1306 FILLER_35_188
*1307 FILLER_35_19
*1308 FILLER_35_197
*1309 FILLER_35_209
*1310 FILLER_35_213
*1311 FILLER_35_219
*1312 FILLER_35_223
*1313 FILLER_35_225
*1314 FILLER_35_232
*1315 FILLER_35_239
*1316 FILLER_35_247
*1317 FILLER_35_251
*1318 FILLER_35_253
*1319 FILLER_35_259
*1320 FILLER_35_26
*1321 FILLER_35_267
*1322 FILLER_35_275
*1323 FILLER_35_279
*1324 FILLER_35_281
*1325 FILLER_35_287
*1326 FILLER_35_29
*1327 FILLER_35_295
*1328 FILLER_35_3
*1329 FILLER_35_303
*1330 FILLER_35_307
*1331 FILLER_35_309
*1332 FILLER_35_317
*1333 FILLER_35_325
*1334 FILLER_35_333
*1335 FILLER_35_337
*1336 FILLER_35_40
*1337 FILLER_35_47
*1338 FILLER_35_54
*1339 FILLER_35_57
*1340 FILLER_35_63
*1341 FILLER_35_67
*1342 FILLER_35_75
*1343 FILLER_35_82
*1344 FILLER_35_85
*1345 FILLER_3_105
*1346 FILLER_3_111
*1347 FILLER_3_113
*1348 FILLER_3_125
*1349 FILLER_3_137
*1350 FILLER_3_149
*1351 FILLER_3_15
*1352 FILLER_3_161
*1353 FILLER_3_167
*1354 FILLER_3_169
*1355 FILLER_3_181
*1356 FILLER_3_193
*1357 FILLER_3_205
*1358 FILLER_3_217
*1359 FILLER_3_223
*1360 FILLER_3_225
*1361 FILLER_3_237
*1362 FILLER_3_249
*1363 FILLER_3_261
*1364 FILLER_3_27
*1365 FILLER_3_273
*1366 FILLER_3_279
*1367 FILLER_3_281
*1368 FILLER_3_293
*1369 FILLER_3_3
*1370 FILLER_3_305
*1371 FILLER_3_317
*1372 FILLER_3_329
*1373 FILLER_3_335
*1374 FILLER_3_337
*1375 FILLER_3_39
*1376 FILLER_3_51
*1377 FILLER_3_55
*1378 FILLER_3_57
*1379 FILLER_3_69
*1380 FILLER_3_81
*1381 FILLER_3_93
*1382 FILLER_4_109
*1383 FILLER_4_121
*1384 FILLER_4_133
*1385 FILLER_4_139
*1386 FILLER_4_141
*1387 FILLER_4_15
*1388 FILLER_4_153
*1389 FILLER_4_165
*1390 FILLER_4_177
*1391 FILLER_4_189
*1392 FILLER_4_195
*1393 FILLER_4_197
*1394 FILLER_4_209
*1395 FILLER_4_221
*1396 FILLER_4_233
*1397 FILLER_4_245
*1398 FILLER_4_251
*1399 FILLER_4_253
*1400 FILLER_4_265
*1401 FILLER_4_27
*1402 FILLER_4_277
*1403 FILLER_4_289
*1404 FILLER_4_29
*1405 FILLER_4_3
*1406 FILLER_4_301
*1407 FILLER_4_307
*1408 FILLER_4_309
*1409 FILLER_4_321
*1410 FILLER_4_333
*1411 FILLER_4_337
*1412 FILLER_4_41
*1413 FILLER_4_53
*1414 FILLER_4_65
*1415 FILLER_4_77
*1416 FILLER_4_83
*1417 FILLER_4_85
*1418 FILLER_4_97
*1419 FILLER_5_105
*1420 FILLER_5_111
*1421 FILLER_5_113
*1422 FILLER_5_125
*1423 FILLER_5_137
*1424 FILLER_5_149
*1425 FILLER_5_15
*1426 FILLER_5_161
*1427 FILLER_5_167
*1428 FILLER_5_169
*1429 FILLER_5_181
*1430 FILLER_5_193
*1431 FILLER_5_205
*1432 FILLER_5_217
*1433 FILLER_5_223
*1434 FILLER_5_225
*1435 FILLER_5_237
*1436 FILLER_5_249
*1437 FILLER_5_261
*1438 FILLER_5_27
*1439 FILLER_5_273
*1440 FILLER_5_279
*1441 FILLER_5_281
*1442 FILLER_5_293
*1443 FILLER_5_3
*1444 FILLER_5_305
*1445 FILLER_5_317
*1446 FILLER_5_329
*1447 FILLER_5_335
*1448 FILLER_5_337
*1449 FILLER_5_39
*1450 FILLER_5_51
*1451 FILLER_5_55
*1452 FILLER_5_57
*1453 FILLER_5_69
*1454 FILLER_5_81
*1455 FILLER_5_93
*1456 FILLER_6_109
*1457 FILLER_6_121
*1458 FILLER_6_133
*1459 FILLER_6_139
*1460 FILLER_6_141
*1461 FILLER_6_15
*1462 FILLER_6_153
*1463 FILLER_6_165
*1464 FILLER_6_177
*1465 FILLER_6_189
*1466 FILLER_6_195
*1467 FILLER_6_197
*1468 FILLER_6_209
*1469 FILLER_6_221
*1470 FILLER_6_233
*1471 FILLER_6_245
*1472 FILLER_6_251
*1473 FILLER_6_253
*1474 FILLER_6_265
*1475 FILLER_6_27
*1476 FILLER_6_277
*1477 FILLER_6_289
*1478 FILLER_6_29
*1479 FILLER_6_3
*1480 FILLER_6_301
*1481 FILLER_6_307
*1482 FILLER_6_309
*1483 FILLER_6_321
*1484 FILLER_6_333
*1485 FILLER_6_337
*1486 FILLER_6_41
*1487 FILLER_6_53
*1488 FILLER_6_65
*1489 FILLER_6_77
*1490 FILLER_6_83
*1491 FILLER_6_85
*1492 FILLER_6_97
*1493 FILLER_7_105
*1494 FILLER_7_111
*1495 FILLER_7_113
*1496 FILLER_7_125
*1497 FILLER_7_137
*1498 FILLER_7_149
*1499 FILLER_7_15
*1500 FILLER_7_161
*1501 FILLER_7_167
*1502 FILLER_7_169
*1503 FILLER_7_181
*1504 FILLER_7_193
*1505 FILLER_7_205
*1506 FILLER_7_217
*1507 FILLER_7_223
*1508 FILLER_7_225
*1509 FILLER_7_237
*1510 FILLER_7_249
*1511 FILLER_7_261
*1512 FILLER_7_27
*1513 FILLER_7_273
*1514 FILLER_7_279
*1515 FILLER_7_281
*1516 FILLER_7_293
*1517 FILLER_7_3
*1518 FILLER_7_305
*1519 FILLER_7_317
*1520 FILLER_7_329
*1521 FILLER_7_335
*1522 FILLER_7_337
*1523 FILLER_7_39
*1524 FILLER_7_51
*1525 FILLER_7_55
*1526 FILLER_7_57
*1527 FILLER_7_69
*1528 FILLER_7_81
*1529 FILLER_7_93
*1530 FILLER_8_109
*1531 FILLER_8_121
*1532 FILLER_8_133
*1533 FILLER_8_139
*1534 FILLER_8_141
*1535 FILLER_8_15
*1536 FILLER_8_153
*1537 FILLER_8_165
*1538 FILLER_8_177
*1539 FILLER_8_189
*1540 FILLER_8_195
*1541 FILLER_8_197
*1542 FILLER_8_209
*1543 FILLER_8_221
*1544 FILLER_8_233
*1545 FILLER_8_245
*1546 FILLER_8_251
*1547 FILLER_8_253
*1548 FILLER_8_265
*1549 FILLER_8_27
*1550 FILLER_8_277
*1551 FILLER_8_289
*1552 FILLER_8_29
*1553 FILLER_8_3
*1554 FILLER_8_301
*1555 FILLER_8_307
*1556 FILLER_8_309
*1557 FILLER_8_321
*1558 FILLER_8_333
*1559 FILLER_8_337
*1560 FILLER_8_41
*1561 FILLER_8_53
*1562 FILLER_8_65
*1563 FILLER_8_77
*1564 FILLER_8_83
*1565 FILLER_8_85
*1566 FILLER_8_97
*1567 FILLER_9_105
*1568 FILLER_9_111
*1569 FILLER_9_113
*1570 FILLER_9_125
*1571 FILLER_9_15
*1572 FILLER_9_156
*1573 FILLER_9_169
*1574 FILLER_9_181
*1575 FILLER_9_193
*1576 FILLER_9_205
*1577 FILLER_9_217
*1578 FILLER_9_223
*1579 FILLER_9_225
*1580 FILLER_9_237
*1581 FILLER_9_249
*1582 FILLER_9_261
*1583 FILLER_9_27
*1584 FILLER_9_273
*1585 FILLER_9_279