*SPEF "ieee 1481-1999"
*DESIGN "tt_um_millerresearch_top"
*DATE "11:11:11 Fri 11 11, 1111"
*VENDOR "OpenRCX"
*PROGRAM "Parallel Extraction"
*VERSION "1.0"
*DESIGN_FLOW "NAME_SCOPE LOCAL" "PIN_CAP NONE"
*DIVIDER /
*DELIMITER :
*BUS_DELIMITER []
*T_UNIT 1 NS
*C_UNIT 1 PF
*R_UNIT 1 OHM
*L_UNIT 1 HENRY

*NAME_MAP
*1 clk
*2 ena
*3 rst_n
*4 ui_in[0]
*5 ui_in[1]
*6 ui_in[2]
*7 ui_in[3]
*8 ui_in[4]
*9 ui_in[5]
*10 ui_in[6]
*11 ui_in[7]
*12 uio_in[0]
*13 uio_in[1]
*14 uio_in[2]
*15 uio_in[3]
*16 uio_in[4]
*17 uio_in[5]
*18 uio_in[6]
*19 uio_in[7]
*20 net22
*21 net23
*22 net24
*23 net25
*24 net30
*25 net31
*26 net32
*27 net33
*28 net26
*29 net27
*30 net28
*31 net29
*32 uio_out[4]
*33 uio_out[5]
*34 uio_out[6]
*35 uio_out[7]
*36 uo_out[0]
*37 uo_out[1]
*38 uo_out[2]
*39 uo_out[3]
*40 uo_out[4]
*41 uo_out[5]
*42 uo_out[6]
*43 uo_out[7]
*46 SPINET\.genblk1\[0\]\.NODE\.MISO
*47 SPINET\.genblk1\[0\]\.NODE\.NODE\.busy
*48 SPINET\.genblk1\[0\]\.NODE\.NODE\.fromclient\[0\]
*49 SPINET\.genblk1\[0\]\.NODE\.NODE\.fromclient\[11\]
*50 SPINET\.genblk1\[0\]\.NODE\.NODE\.fromclient\[12\]
*51 SPINET\.genblk1\[0\]\.NODE\.NODE\.fromclient\[13\]
*52 SPINET\.genblk1\[0\]\.NODE\.NODE\.fromclient\[14\]
*53 SPINET\.genblk1\[0\]\.NODE\.NODE\.fromclient\[15\]
*54 SPINET\.genblk1\[0\]\.NODE\.NODE\.fromclient\[1\]
*55 SPINET\.genblk1\[0\]\.NODE\.NODE\.fromclient\[2\]
*56 SPINET\.genblk1\[0\]\.NODE\.NODE\.fromclient\[3\]
*57 SPINET\.genblk1\[0\]\.NODE\.NODE\.fromclient\[4\]
*58 SPINET\.genblk1\[0\]\.NODE\.NODE\.fromclient\[5\]
*59 SPINET\.genblk1\[0\]\.NODE\.NODE\.fromclient\[6\]
*60 SPINET\.genblk1\[0\]\.NODE\.NODE\.fromclient\[7\]
*61 SPINET\.genblk1\[0\]\.NODE\.NODE\.fromring\[0\]
*62 SPINET\.genblk1\[0\]\.NODE\.NODE\.fromring\[10\]
*63 SPINET\.genblk1\[0\]\.NODE\.NODE\.fromring\[11\]
*64 SPINET\.genblk1\[0\]\.NODE\.NODE\.fromring\[12\]
*65 SPINET\.genblk1\[0\]\.NODE\.NODE\.fromring\[13\]
*66 SPINET\.genblk1\[0\]\.NODE\.NODE\.fromring\[14\]
*67 SPINET\.genblk1\[0\]\.NODE\.NODE\.fromring\[15\]
*68 SPINET\.genblk1\[0\]\.NODE\.NODE\.fromring\[1\]
*69 SPINET\.genblk1\[0\]\.NODE\.NODE\.fromring\[2\]
*70 SPINET\.genblk1\[0\]\.NODE\.NODE\.fromring\[3\]
*71 SPINET\.genblk1\[0\]\.NODE\.NODE\.fromring\[4\]
*72 SPINET\.genblk1\[0\]\.NODE\.NODE\.fromring\[5\]
*73 SPINET\.genblk1\[0\]\.NODE\.NODE\.fromring\[6\]
*74 SPINET\.genblk1\[0\]\.NODE\.NODE\.fromring\[7\]
*75 SPINET\.genblk1\[0\]\.NODE\.NODE\.fromring\[8\]
*76 SPINET\.genblk1\[0\]\.NODE\.NODE\.fromring\[9\]
*77 SPINET\.genblk1\[0\]\.NODE\.NODE\.misoack
*78 SPINET\.genblk1\[0\]\.NODE\.NODE\.misoack_sync\[0\]
*79 SPINET\.genblk1\[0\]\.NODE\.NODE\.misoack_sync\[1\]
*80 SPINET\.genblk1\[0\]\.NODE\.NODE\.misovalid
*81 SPINET\.genblk1\[0\]\.NODE\.NODE\.mosiack
*82 SPINET\.genblk1\[0\]\.NODE\.NODE\.mosivalid
*83 SPINET\.genblk1\[0\]\.NODE\.NODE\.mosivalid_sync\[0\]
*84 SPINET\.genblk1\[0\]\.NODE\.NODE\.mosivalid_sync\[1\]
*85 SPINET\.genblk1\[0\]\.NODE\.NODE\.outpkt\[0\]
*86 SPINET\.genblk1\[0\]\.NODE\.NODE\.outpkt\[10\]
*87 SPINET\.genblk1\[0\]\.NODE\.NODE\.outpkt\[11\]
*88 SPINET\.genblk1\[0\]\.NODE\.NODE\.outpkt\[12\]
*89 SPINET\.genblk1\[0\]\.NODE\.NODE\.outpkt\[13\]
*90 SPINET\.genblk1\[0\]\.NODE\.NODE\.outpkt\[14\]
*91 SPINET\.genblk1\[0\]\.NODE\.NODE\.outpkt\[15\]
*92 SPINET\.genblk1\[0\]\.NODE\.NODE\.outpkt\[1\]
*93 SPINET\.genblk1\[0\]\.NODE\.NODE\.outpkt\[2\]
*94 SPINET\.genblk1\[0\]\.NODE\.NODE\.outpkt\[3\]
*95 SPINET\.genblk1\[0\]\.NODE\.NODE\.outpkt\[4\]
*96 SPINET\.genblk1\[0\]\.NODE\.NODE\.outpkt\[5\]
*97 SPINET\.genblk1\[0\]\.NODE\.NODE\.outpkt\[6\]
*98 SPINET\.genblk1\[0\]\.NODE\.NODE\.outpkt\[7\]
*99 SPINET\.genblk1\[0\]\.NODE\.NODE\.outpkt\[8\]
*100 SPINET\.genblk1\[0\]\.NODE\.NODE\.outpkt\[9\]
*101 SPINET\.genblk1\[0\]\.NODE\.NODE\.ringbuf\[0\]
*102 SPINET\.genblk1\[0\]\.NODE\.NODE\.ringbuf\[10\]
*103 SPINET\.genblk1\[0\]\.NODE\.NODE\.ringbuf\[11\]
*104 SPINET\.genblk1\[0\]\.NODE\.NODE\.ringbuf\[12\]
*105 SPINET\.genblk1\[0\]\.NODE\.NODE\.ringbuf\[13\]
*106 SPINET\.genblk1\[0\]\.NODE\.NODE\.ringbuf\[14\]
*107 SPINET\.genblk1\[0\]\.NODE\.NODE\.ringbuf\[15\]
*108 SPINET\.genblk1\[0\]\.NODE\.NODE\.ringbuf\[1\]
*109 SPINET\.genblk1\[0\]\.NODE\.NODE\.ringbuf\[2\]
*110 SPINET\.genblk1\[0\]\.NODE\.NODE\.ringbuf\[3\]
*111 SPINET\.genblk1\[0\]\.NODE\.NODE\.ringbuf\[4\]
*112 SPINET\.genblk1\[0\]\.NODE\.NODE\.ringbuf\[5\]
*113 SPINET\.genblk1\[0\]\.NODE\.NODE\.ringbuf\[6\]
*114 SPINET\.genblk1\[0\]\.NODE\.NODE\.ringbuf\[7\]
*115 SPINET\.genblk1\[0\]\.NODE\.NODE\.ringbuf\[8\]
*116 SPINET\.genblk1\[0\]\.NODE\.NODE\.ringbuf\[9\]
*117 SPINET\.genblk1\[0\]\.NODE\.NODE\.rxbuf\[0\]
*118 SPINET\.genblk1\[0\]\.NODE\.NODE\.rxbuf\[10\]
*119 SPINET\.genblk1\[0\]\.NODE\.NODE\.rxbuf\[11\]
*120 SPINET\.genblk1\[0\]\.NODE\.NODE\.rxbuf\[12\]
*121 SPINET\.genblk1\[0\]\.NODE\.NODE\.rxbuf\[13\]
*122 SPINET\.genblk1\[0\]\.NODE\.NODE\.rxbuf\[14\]
*123 SPINET\.genblk1\[0\]\.NODE\.NODE\.rxbuf\[15\]
*124 SPINET\.genblk1\[0\]\.NODE\.NODE\.rxbuf\[1\]
*125 SPINET\.genblk1\[0\]\.NODE\.NODE\.rxbuf\[2\]
*126 SPINET\.genblk1\[0\]\.NODE\.NODE\.rxbuf\[3\]
*127 SPINET\.genblk1\[0\]\.NODE\.NODE\.rxbuf\[4\]
*128 SPINET\.genblk1\[0\]\.NODE\.NODE\.rxbuf\[5\]
*129 SPINET\.genblk1\[0\]\.NODE\.NODE\.rxbuf\[6\]
*130 SPINET\.genblk1\[0\]\.NODE\.NODE\.rxbuf\[7\]
*131 SPINET\.genblk1\[0\]\.NODE\.NODE\.rxbuf\[8\]
*132 SPINET\.genblk1\[0\]\.NODE\.NODE\.rxbuf\[9\]
*133 SPINET\.genblk1\[0\]\.NODE\.NODE\.txbuf\[0\]
*134 SPINET\.genblk1\[0\]\.NODE\.NODE\.txbuf\[11\]
*135 SPINET\.genblk1\[0\]\.NODE\.NODE\.txbuf\[12\]
*136 SPINET\.genblk1\[0\]\.NODE\.NODE\.txbuf\[13\]
*137 SPINET\.genblk1\[0\]\.NODE\.NODE\.txbuf\[14\]
*138 SPINET\.genblk1\[0\]\.NODE\.NODE\.txbuf\[15\]
*139 SPINET\.genblk1\[0\]\.NODE\.NODE\.txbuf\[1\]
*140 SPINET\.genblk1\[0\]\.NODE\.NODE\.txbuf\[2\]
*141 SPINET\.genblk1\[0\]\.NODE\.NODE\.txbuf\[3\]
*142 SPINET\.genblk1\[0\]\.NODE\.NODE\.txbuf\[4\]
*143 SPINET\.genblk1\[0\]\.NODE\.NODE\.txbuf\[5\]
*144 SPINET\.genblk1\[0\]\.NODE\.NODE\.txbuf\[6\]
*145 SPINET\.genblk1\[0\]\.NODE\.NODE\.txbuf\[7\]
*146 SPINET\.genblk1\[0\]\.NODE\.NODE\.txready
*147 SPINET\.genblk1\[0\]\.NODE\.SPI\.bitcount\[0\]
*148 SPINET\.genblk1\[0\]\.NODE\.SPI\.bitcount\[1\]
*149 SPINET\.genblk1\[0\]\.NODE\.SPI\.bitcount\[2\]
*150 SPINET\.genblk1\[0\]\.NODE\.SPI\.bitcount\[3\]
*151 SPINET\.genblk1\[0\]\.NODE\.SPI\.shiftreg\[0\]
*152 SPINET\.genblk1\[0\]\.NODE\.SPI\.shiftreg\[10\]
*153 SPINET\.genblk1\[0\]\.NODE\.SPI\.shiftreg\[11\]
*154 SPINET\.genblk1\[0\]\.NODE\.SPI\.shiftreg\[12\]
*155 SPINET\.genblk1\[0\]\.NODE\.SPI\.shiftreg\[13\]
*156 SPINET\.genblk1\[0\]\.NODE\.SPI\.shiftreg\[14\]
*157 SPINET\.genblk1\[0\]\.NODE\.SPI\.shiftreg\[15\]
*158 SPINET\.genblk1\[0\]\.NODE\.SPI\.shiftreg\[1\]
*159 SPINET\.genblk1\[0\]\.NODE\.SPI\.shiftreg\[2\]
*160 SPINET\.genblk1\[0\]\.NODE\.SPI\.shiftreg\[3\]
*161 SPINET\.genblk1\[0\]\.NODE\.SPI\.shiftreg\[4\]
*162 SPINET\.genblk1\[0\]\.NODE\.SPI\.shiftreg\[5\]
*163 SPINET\.genblk1\[0\]\.NODE\.SPI\.shiftreg\[6\]
*164 SPINET\.genblk1\[0\]\.NODE\.SPI\.shiftreg\[7\]
*165 SPINET\.genblk1\[0\]\.NODE\.SPI\.shiftreg\[8\]
*166 SPINET\.genblk1\[0\]\.NODE\.SPI\.shiftreg\[9\]
*167 SPINET\.genblk1\[1\]\.NODE\.MISO
*168 SPINET\.genblk1\[1\]\.NODE\.NODE\.busy
*169 SPINET\.genblk1\[1\]\.NODE\.NODE\.fromclient\[0\]
*170 SPINET\.genblk1\[1\]\.NODE\.NODE\.fromclient\[11\]
*171 SPINET\.genblk1\[1\]\.NODE\.NODE\.fromclient\[12\]
*172 SPINET\.genblk1\[1\]\.NODE\.NODE\.fromclient\[13\]
*173 SPINET\.genblk1\[1\]\.NODE\.NODE\.fromclient\[14\]
*174 SPINET\.genblk1\[1\]\.NODE\.NODE\.fromclient\[15\]
*175 SPINET\.genblk1\[1\]\.NODE\.NODE\.fromclient\[1\]
*176 SPINET\.genblk1\[1\]\.NODE\.NODE\.fromclient\[2\]
*177 SPINET\.genblk1\[1\]\.NODE\.NODE\.fromclient\[3\]
*178 SPINET\.genblk1\[1\]\.NODE\.NODE\.fromclient\[4\]
*179 SPINET\.genblk1\[1\]\.NODE\.NODE\.fromclient\[5\]
*180 SPINET\.genblk1\[1\]\.NODE\.NODE\.fromclient\[6\]
*181 SPINET\.genblk1\[1\]\.NODE\.NODE\.fromclient\[7\]
*182 SPINET\.genblk1\[1\]\.NODE\.NODE\.misoack
*183 SPINET\.genblk1\[1\]\.NODE\.NODE\.misoack_sync\[0\]
*184 SPINET\.genblk1\[1\]\.NODE\.NODE\.misoack_sync\[1\]
*185 SPINET\.genblk1\[1\]\.NODE\.NODE\.misovalid
*186 SPINET\.genblk1\[1\]\.NODE\.NODE\.mosiack
*187 SPINET\.genblk1\[1\]\.NODE\.NODE\.mosivalid
*188 SPINET\.genblk1\[1\]\.NODE\.NODE\.mosivalid_sync\[0\]
*189 SPINET\.genblk1\[1\]\.NODE\.NODE\.mosivalid_sync\[1\]
*190 SPINET\.genblk1\[1\]\.NODE\.NODE\.outpkt\[0\]
*191 SPINET\.genblk1\[1\]\.NODE\.NODE\.outpkt\[10\]
*192 SPINET\.genblk1\[1\]\.NODE\.NODE\.outpkt\[11\]
*193 SPINET\.genblk1\[1\]\.NODE\.NODE\.outpkt\[12\]
*194 SPINET\.genblk1\[1\]\.NODE\.NODE\.outpkt\[13\]
*195 SPINET\.genblk1\[1\]\.NODE\.NODE\.outpkt\[14\]
*196 SPINET\.genblk1\[1\]\.NODE\.NODE\.outpkt\[15\]
*197 SPINET\.genblk1\[1\]\.NODE\.NODE\.outpkt\[1\]
*198 SPINET\.genblk1\[1\]\.NODE\.NODE\.outpkt\[2\]
*199 SPINET\.genblk1\[1\]\.NODE\.NODE\.outpkt\[3\]
*200 SPINET\.genblk1\[1\]\.NODE\.NODE\.outpkt\[4\]
*201 SPINET\.genblk1\[1\]\.NODE\.NODE\.outpkt\[5\]
*202 SPINET\.genblk1\[1\]\.NODE\.NODE\.outpkt\[6\]
*203 SPINET\.genblk1\[1\]\.NODE\.NODE\.outpkt\[7\]
*204 SPINET\.genblk1\[1\]\.NODE\.NODE\.outpkt\[8\]
*205 SPINET\.genblk1\[1\]\.NODE\.NODE\.outpkt\[9\]
*206 SPINET\.genblk1\[1\]\.NODE\.NODE\.ringbuf\[0\]
*207 SPINET\.genblk1\[1\]\.NODE\.NODE\.ringbuf\[10\]
*208 SPINET\.genblk1\[1\]\.NODE\.NODE\.ringbuf\[11\]
*209 SPINET\.genblk1\[1\]\.NODE\.NODE\.ringbuf\[12\]
*210 SPINET\.genblk1\[1\]\.NODE\.NODE\.ringbuf\[13\]
*211 SPINET\.genblk1\[1\]\.NODE\.NODE\.ringbuf\[14\]
*212 SPINET\.genblk1\[1\]\.NODE\.NODE\.ringbuf\[15\]
*213 SPINET\.genblk1\[1\]\.NODE\.NODE\.ringbuf\[1\]
*214 SPINET\.genblk1\[1\]\.NODE\.NODE\.ringbuf\[2\]
*215 SPINET\.genblk1\[1\]\.NODE\.NODE\.ringbuf\[3\]
*216 SPINET\.genblk1\[1\]\.NODE\.NODE\.ringbuf\[4\]
*217 SPINET\.genblk1\[1\]\.NODE\.NODE\.ringbuf\[5\]
*218 SPINET\.genblk1\[1\]\.NODE\.NODE\.ringbuf\[6\]
*219 SPINET\.genblk1\[1\]\.NODE\.NODE\.ringbuf\[7\]
*220 SPINET\.genblk1\[1\]\.NODE\.NODE\.ringbuf\[8\]
*221 SPINET\.genblk1\[1\]\.NODE\.NODE\.ringbuf\[9\]
*222 SPINET\.genblk1\[1\]\.NODE\.NODE\.rxbuf\[0\]
*223 SPINET\.genblk1\[1\]\.NODE\.NODE\.rxbuf\[10\]
*224 SPINET\.genblk1\[1\]\.NODE\.NODE\.rxbuf\[11\]
*225 SPINET\.genblk1\[1\]\.NODE\.NODE\.rxbuf\[12\]
*226 SPINET\.genblk1\[1\]\.NODE\.NODE\.rxbuf\[13\]
*227 SPINET\.genblk1\[1\]\.NODE\.NODE\.rxbuf\[14\]
*228 SPINET\.genblk1\[1\]\.NODE\.NODE\.rxbuf\[15\]
*229 SPINET\.genblk1\[1\]\.NODE\.NODE\.rxbuf\[1\]
*230 SPINET\.genblk1\[1\]\.NODE\.NODE\.rxbuf\[2\]
*231 SPINET\.genblk1\[1\]\.NODE\.NODE\.rxbuf\[3\]
*232 SPINET\.genblk1\[1\]\.NODE\.NODE\.rxbuf\[4\]
*233 SPINET\.genblk1\[1\]\.NODE\.NODE\.rxbuf\[5\]
*234 SPINET\.genblk1\[1\]\.NODE\.NODE\.rxbuf\[6\]
*235 SPINET\.genblk1\[1\]\.NODE\.NODE\.rxbuf\[7\]
*236 SPINET\.genblk1\[1\]\.NODE\.NODE\.rxbuf\[8\]
*237 SPINET\.genblk1\[1\]\.NODE\.NODE\.rxbuf\[9\]
*238 SPINET\.genblk1\[1\]\.NODE\.NODE\.txbuf\[0\]
*239 SPINET\.genblk1\[1\]\.NODE\.NODE\.txbuf\[11\]
*240 SPINET\.genblk1\[1\]\.NODE\.NODE\.txbuf\[12\]
*241 SPINET\.genblk1\[1\]\.NODE\.NODE\.txbuf\[13\]
*242 SPINET\.genblk1\[1\]\.NODE\.NODE\.txbuf\[14\]
*243 SPINET\.genblk1\[1\]\.NODE\.NODE\.txbuf\[15\]
*244 SPINET\.genblk1\[1\]\.NODE\.NODE\.txbuf\[1\]
*245 SPINET\.genblk1\[1\]\.NODE\.NODE\.txbuf\[2\]
*246 SPINET\.genblk1\[1\]\.NODE\.NODE\.txbuf\[3\]
*247 SPINET\.genblk1\[1\]\.NODE\.NODE\.txbuf\[4\]
*248 SPINET\.genblk1\[1\]\.NODE\.NODE\.txbuf\[5\]
*249 SPINET\.genblk1\[1\]\.NODE\.NODE\.txbuf\[6\]
*250 SPINET\.genblk1\[1\]\.NODE\.NODE\.txbuf\[7\]
*251 SPINET\.genblk1\[1\]\.NODE\.NODE\.txready
*252 SPINET\.genblk1\[1\]\.NODE\.SPI\.bitcount\[0\]
*253 SPINET\.genblk1\[1\]\.NODE\.SPI\.bitcount\[1\]
*254 SPINET\.genblk1\[1\]\.NODE\.SPI\.bitcount\[2\]
*255 SPINET\.genblk1\[1\]\.NODE\.SPI\.bitcount\[3\]
*256 SPINET\.genblk1\[1\]\.NODE\.SPI\.shiftreg\[0\]
*257 SPINET\.genblk1\[1\]\.NODE\.SPI\.shiftreg\[10\]
*258 SPINET\.genblk1\[1\]\.NODE\.SPI\.shiftreg\[11\]
*259 SPINET\.genblk1\[1\]\.NODE\.SPI\.shiftreg\[12\]
*260 SPINET\.genblk1\[1\]\.NODE\.SPI\.shiftreg\[13\]
*261 SPINET\.genblk1\[1\]\.NODE\.SPI\.shiftreg\[14\]
*262 SPINET\.genblk1\[1\]\.NODE\.SPI\.shiftreg\[15\]
*263 SPINET\.genblk1\[1\]\.NODE\.SPI\.shiftreg\[1\]
*264 SPINET\.genblk1\[1\]\.NODE\.SPI\.shiftreg\[2\]
*265 SPINET\.genblk1\[1\]\.NODE\.SPI\.shiftreg\[3\]
*266 SPINET\.genblk1\[1\]\.NODE\.SPI\.shiftreg\[4\]
*267 SPINET\.genblk1\[1\]\.NODE\.SPI\.shiftreg\[5\]
*268 SPINET\.genblk1\[1\]\.NODE\.SPI\.shiftreg\[6\]
*269 SPINET\.genblk1\[1\]\.NODE\.SPI\.shiftreg\[7\]
*270 SPINET\.genblk1\[1\]\.NODE\.SPI\.shiftreg\[8\]
*271 SPINET\.genblk1\[1\]\.NODE\.SPI\.shiftreg\[9\]
*272 SPINET\.genblk1\[2\]\.NODE\.MISO
*273 SPINET\.genblk1\[2\]\.NODE\.NODE\.busy
*274 SPINET\.genblk1\[2\]\.NODE\.NODE\.fromclient\[0\]
*275 SPINET\.genblk1\[2\]\.NODE\.NODE\.fromclient\[11\]
*276 SPINET\.genblk1\[2\]\.NODE\.NODE\.fromclient\[12\]
*277 SPINET\.genblk1\[2\]\.NODE\.NODE\.fromclient\[13\]
*278 SPINET\.genblk1\[2\]\.NODE\.NODE\.fromclient\[14\]
*279 SPINET\.genblk1\[2\]\.NODE\.NODE\.fromclient\[15\]
*280 SPINET\.genblk1\[2\]\.NODE\.NODE\.fromclient\[1\]
*281 SPINET\.genblk1\[2\]\.NODE\.NODE\.fromclient\[2\]
*282 SPINET\.genblk1\[2\]\.NODE\.NODE\.fromclient\[3\]
*283 SPINET\.genblk1\[2\]\.NODE\.NODE\.fromclient\[4\]
*284 SPINET\.genblk1\[2\]\.NODE\.NODE\.fromclient\[5\]
*285 SPINET\.genblk1\[2\]\.NODE\.NODE\.fromclient\[6\]
*286 SPINET\.genblk1\[2\]\.NODE\.NODE\.fromclient\[7\]
*287 SPINET\.genblk1\[2\]\.NODE\.NODE\.misoack
*288 SPINET\.genblk1\[2\]\.NODE\.NODE\.misoack_sync\[0\]
*289 SPINET\.genblk1\[2\]\.NODE\.NODE\.misoack_sync\[1\]
*290 SPINET\.genblk1\[2\]\.NODE\.NODE\.misovalid
*291 SPINET\.genblk1\[2\]\.NODE\.NODE\.mosiack
*292 SPINET\.genblk1\[2\]\.NODE\.NODE\.mosivalid
*293 SPINET\.genblk1\[2\]\.NODE\.NODE\.mosivalid_sync\[0\]
*294 SPINET\.genblk1\[2\]\.NODE\.NODE\.mosivalid_sync\[1\]
*295 SPINET\.genblk1\[2\]\.NODE\.NODE\.outpkt\[0\]
*296 SPINET\.genblk1\[2\]\.NODE\.NODE\.outpkt\[10\]
*297 SPINET\.genblk1\[2\]\.NODE\.NODE\.outpkt\[11\]
*298 SPINET\.genblk1\[2\]\.NODE\.NODE\.outpkt\[12\]
*299 SPINET\.genblk1\[2\]\.NODE\.NODE\.outpkt\[13\]
*300 SPINET\.genblk1\[2\]\.NODE\.NODE\.outpkt\[14\]
*301 SPINET\.genblk1\[2\]\.NODE\.NODE\.outpkt\[15\]
*302 SPINET\.genblk1\[2\]\.NODE\.NODE\.outpkt\[1\]
*303 SPINET\.genblk1\[2\]\.NODE\.NODE\.outpkt\[2\]
*304 SPINET\.genblk1\[2\]\.NODE\.NODE\.outpkt\[3\]
*305 SPINET\.genblk1\[2\]\.NODE\.NODE\.outpkt\[4\]
*306 SPINET\.genblk1\[2\]\.NODE\.NODE\.outpkt\[5\]
*307 SPINET\.genblk1\[2\]\.NODE\.NODE\.outpkt\[6\]
*308 SPINET\.genblk1\[2\]\.NODE\.NODE\.outpkt\[7\]
*309 SPINET\.genblk1\[2\]\.NODE\.NODE\.outpkt\[8\]
*310 SPINET\.genblk1\[2\]\.NODE\.NODE\.outpkt\[9\]
*311 SPINET\.genblk1\[2\]\.NODE\.NODE\.ringbuf\[0\]
*312 SPINET\.genblk1\[2\]\.NODE\.NODE\.ringbuf\[10\]
*313 SPINET\.genblk1\[2\]\.NODE\.NODE\.ringbuf\[11\]
*314 SPINET\.genblk1\[2\]\.NODE\.NODE\.ringbuf\[12\]
*315 SPINET\.genblk1\[2\]\.NODE\.NODE\.ringbuf\[13\]
*316 SPINET\.genblk1\[2\]\.NODE\.NODE\.ringbuf\[14\]
*317 SPINET\.genblk1\[2\]\.NODE\.NODE\.ringbuf\[15\]
*318 SPINET\.genblk1\[2\]\.NODE\.NODE\.ringbuf\[1\]
*319 SPINET\.genblk1\[2\]\.NODE\.NODE\.ringbuf\[2\]
*320 SPINET\.genblk1\[2\]\.NODE\.NODE\.ringbuf\[3\]
*321 SPINET\.genblk1\[2\]\.NODE\.NODE\.ringbuf\[4\]
*322 SPINET\.genblk1\[2\]\.NODE\.NODE\.ringbuf\[5\]
*323 SPINET\.genblk1\[2\]\.NODE\.NODE\.ringbuf\[6\]
*324 SPINET\.genblk1\[2\]\.NODE\.NODE\.ringbuf\[7\]
*325 SPINET\.genblk1\[2\]\.NODE\.NODE\.ringbuf\[8\]
*326 SPINET\.genblk1\[2\]\.NODE\.NODE\.ringbuf\[9\]
*327 SPINET\.genblk1\[2\]\.NODE\.NODE\.rxbuf\[0\]
*328 SPINET\.genblk1\[2\]\.NODE\.NODE\.rxbuf\[10\]
*329 SPINET\.genblk1\[2\]\.NODE\.NODE\.rxbuf\[11\]
*330 SPINET\.genblk1\[2\]\.NODE\.NODE\.rxbuf\[12\]
*331 SPINET\.genblk1\[2\]\.NODE\.NODE\.rxbuf\[13\]
*332 SPINET\.genblk1\[2\]\.NODE\.NODE\.rxbuf\[14\]
*333 SPINET\.genblk1\[2\]\.NODE\.NODE\.rxbuf\[15\]
*334 SPINET\.genblk1\[2\]\.NODE\.NODE\.rxbuf\[1\]
*335 SPINET\.genblk1\[2\]\.NODE\.NODE\.rxbuf\[2\]
*336 SPINET\.genblk1\[2\]\.NODE\.NODE\.rxbuf\[3\]
*337 SPINET\.genblk1\[2\]\.NODE\.NODE\.rxbuf\[4\]
*338 SPINET\.genblk1\[2\]\.NODE\.NODE\.rxbuf\[5\]
*339 SPINET\.genblk1\[2\]\.NODE\.NODE\.rxbuf\[6\]
*340 SPINET\.genblk1\[2\]\.NODE\.NODE\.rxbuf\[7\]
*341 SPINET\.genblk1\[2\]\.NODE\.NODE\.rxbuf\[8\]
*342 SPINET\.genblk1\[2\]\.NODE\.NODE\.rxbuf\[9\]
*343 SPINET\.genblk1\[2\]\.NODE\.NODE\.txbuf\[0\]
*344 SPINET\.genblk1\[2\]\.NODE\.NODE\.txbuf\[11\]
*345 SPINET\.genblk1\[2\]\.NODE\.NODE\.txbuf\[12\]
*346 SPINET\.genblk1\[2\]\.NODE\.NODE\.txbuf\[13\]
*347 SPINET\.genblk1\[2\]\.NODE\.NODE\.txbuf\[14\]
*348 SPINET\.genblk1\[2\]\.NODE\.NODE\.txbuf\[15\]
*349 SPINET\.genblk1\[2\]\.NODE\.NODE\.txbuf\[1\]
*350 SPINET\.genblk1\[2\]\.NODE\.NODE\.txbuf\[2\]
*351 SPINET\.genblk1\[2\]\.NODE\.NODE\.txbuf\[3\]
*352 SPINET\.genblk1\[2\]\.NODE\.NODE\.txbuf\[4\]
*353 SPINET\.genblk1\[2\]\.NODE\.NODE\.txbuf\[5\]
*354 SPINET\.genblk1\[2\]\.NODE\.NODE\.txbuf\[6\]
*355 SPINET\.genblk1\[2\]\.NODE\.NODE\.txbuf\[7\]
*356 SPINET\.genblk1\[2\]\.NODE\.NODE\.txready
*357 SPINET\.genblk1\[2\]\.NODE\.SPI\.bitcount\[0\]
*358 SPINET\.genblk1\[2\]\.NODE\.SPI\.bitcount\[1\]
*359 SPINET\.genblk1\[2\]\.NODE\.SPI\.bitcount\[2\]
*360 SPINET\.genblk1\[2\]\.NODE\.SPI\.bitcount\[3\]
*361 SPINET\.genblk1\[2\]\.NODE\.SPI\.shiftreg\[0\]
*362 SPINET\.genblk1\[2\]\.NODE\.SPI\.shiftreg\[10\]
*363 SPINET\.genblk1\[2\]\.NODE\.SPI\.shiftreg\[11\]
*364 SPINET\.genblk1\[2\]\.NODE\.SPI\.shiftreg\[12\]
*365 SPINET\.genblk1\[2\]\.NODE\.SPI\.shiftreg\[13\]
*366 SPINET\.genblk1\[2\]\.NODE\.SPI\.shiftreg\[14\]
*367 SPINET\.genblk1\[2\]\.NODE\.SPI\.shiftreg\[15\]
*368 SPINET\.genblk1\[2\]\.NODE\.SPI\.shiftreg\[1\]
*369 SPINET\.genblk1\[2\]\.NODE\.SPI\.shiftreg\[2\]
*370 SPINET\.genblk1\[2\]\.NODE\.SPI\.shiftreg\[3\]
*371 SPINET\.genblk1\[2\]\.NODE\.SPI\.shiftreg\[4\]
*372 SPINET\.genblk1\[2\]\.NODE\.SPI\.shiftreg\[5\]
*373 SPINET\.genblk1\[2\]\.NODE\.SPI\.shiftreg\[6\]
*374 SPINET\.genblk1\[2\]\.NODE\.SPI\.shiftreg\[7\]
*375 SPINET\.genblk1\[2\]\.NODE\.SPI\.shiftreg\[8\]
*376 SPINET\.genblk1\[2\]\.NODE\.SPI\.shiftreg\[9\]
*377 SPINET\.genblk1\[3\]\.NODE\.MISO
*378 SPINET\.genblk1\[3\]\.NODE\.NODE\.busy
*379 SPINET\.genblk1\[3\]\.NODE\.NODE\.fromclient\[0\]
*380 SPINET\.genblk1\[3\]\.NODE\.NODE\.fromclient\[11\]
*381 SPINET\.genblk1\[3\]\.NODE\.NODE\.fromclient\[12\]
*382 SPINET\.genblk1\[3\]\.NODE\.NODE\.fromclient\[13\]
*383 SPINET\.genblk1\[3\]\.NODE\.NODE\.fromclient\[14\]
*384 SPINET\.genblk1\[3\]\.NODE\.NODE\.fromclient\[15\]
*385 SPINET\.genblk1\[3\]\.NODE\.NODE\.fromclient\[1\]
*386 SPINET\.genblk1\[3\]\.NODE\.NODE\.fromclient\[2\]
*387 SPINET\.genblk1\[3\]\.NODE\.NODE\.fromclient\[3\]
*388 SPINET\.genblk1\[3\]\.NODE\.NODE\.fromclient\[4\]
*389 SPINET\.genblk1\[3\]\.NODE\.NODE\.fromclient\[5\]
*390 SPINET\.genblk1\[3\]\.NODE\.NODE\.fromclient\[6\]
*391 SPINET\.genblk1\[3\]\.NODE\.NODE\.fromclient\[7\]
*392 SPINET\.genblk1\[3\]\.NODE\.NODE\.misoack
*393 SPINET\.genblk1\[3\]\.NODE\.NODE\.misoack_sync\[0\]
*394 SPINET\.genblk1\[3\]\.NODE\.NODE\.misoack_sync\[1\]
*395 SPINET\.genblk1\[3\]\.NODE\.NODE\.misovalid
*396 SPINET\.genblk1\[3\]\.NODE\.NODE\.mosiack
*397 SPINET\.genblk1\[3\]\.NODE\.NODE\.mosivalid
*398 SPINET\.genblk1\[3\]\.NODE\.NODE\.mosivalid_sync\[0\]
*399 SPINET\.genblk1\[3\]\.NODE\.NODE\.mosivalid_sync\[1\]
*400 SPINET\.genblk1\[3\]\.NODE\.NODE\.outpkt\[0\]
*401 SPINET\.genblk1\[3\]\.NODE\.NODE\.outpkt\[10\]
*402 SPINET\.genblk1\[3\]\.NODE\.NODE\.outpkt\[11\]
*403 SPINET\.genblk1\[3\]\.NODE\.NODE\.outpkt\[12\]
*404 SPINET\.genblk1\[3\]\.NODE\.NODE\.outpkt\[13\]
*405 SPINET\.genblk1\[3\]\.NODE\.NODE\.outpkt\[14\]
*406 SPINET\.genblk1\[3\]\.NODE\.NODE\.outpkt\[15\]
*407 SPINET\.genblk1\[3\]\.NODE\.NODE\.outpkt\[1\]
*408 SPINET\.genblk1\[3\]\.NODE\.NODE\.outpkt\[2\]
*409 SPINET\.genblk1\[3\]\.NODE\.NODE\.outpkt\[3\]
*410 SPINET\.genblk1\[3\]\.NODE\.NODE\.outpkt\[4\]
*411 SPINET\.genblk1\[3\]\.NODE\.NODE\.outpkt\[5\]
*412 SPINET\.genblk1\[3\]\.NODE\.NODE\.outpkt\[6\]
*413 SPINET\.genblk1\[3\]\.NODE\.NODE\.outpkt\[7\]
*414 SPINET\.genblk1\[3\]\.NODE\.NODE\.outpkt\[8\]
*415 SPINET\.genblk1\[3\]\.NODE\.NODE\.outpkt\[9\]
*416 SPINET\.genblk1\[3\]\.NODE\.NODE\.rxbuf\[0\]
*417 SPINET\.genblk1\[3\]\.NODE\.NODE\.rxbuf\[10\]
*418 SPINET\.genblk1\[3\]\.NODE\.NODE\.rxbuf\[11\]
*419 SPINET\.genblk1\[3\]\.NODE\.NODE\.rxbuf\[12\]
*420 SPINET\.genblk1\[3\]\.NODE\.NODE\.rxbuf\[13\]
*421 SPINET\.genblk1\[3\]\.NODE\.NODE\.rxbuf\[14\]
*422 SPINET\.genblk1\[3\]\.NODE\.NODE\.rxbuf\[15\]
*423 SPINET\.genblk1\[3\]\.NODE\.NODE\.rxbuf\[1\]
*424 SPINET\.genblk1\[3\]\.NODE\.NODE\.rxbuf\[2\]
*425 SPINET\.genblk1\[3\]\.NODE\.NODE\.rxbuf\[3\]
*426 SPINET\.genblk1\[3\]\.NODE\.NODE\.rxbuf\[4\]
*427 SPINET\.genblk1\[3\]\.NODE\.NODE\.rxbuf\[5\]
*428 SPINET\.genblk1\[3\]\.NODE\.NODE\.rxbuf\[6\]
*429 SPINET\.genblk1\[3\]\.NODE\.NODE\.rxbuf\[7\]
*430 SPINET\.genblk1\[3\]\.NODE\.NODE\.rxbuf\[8\]
*431 SPINET\.genblk1\[3\]\.NODE\.NODE\.rxbuf\[9\]
*432 SPINET\.genblk1\[3\]\.NODE\.NODE\.txbuf\[0\]
*433 SPINET\.genblk1\[3\]\.NODE\.NODE\.txbuf\[11\]
*434 SPINET\.genblk1\[3\]\.NODE\.NODE\.txbuf\[12\]
*435 SPINET\.genblk1\[3\]\.NODE\.NODE\.txbuf\[13\]
*436 SPINET\.genblk1\[3\]\.NODE\.NODE\.txbuf\[14\]
*437 SPINET\.genblk1\[3\]\.NODE\.NODE\.txbuf\[15\]
*438 SPINET\.genblk1\[3\]\.NODE\.NODE\.txbuf\[1\]
*439 SPINET\.genblk1\[3\]\.NODE\.NODE\.txbuf\[2\]
*440 SPINET\.genblk1\[3\]\.NODE\.NODE\.txbuf\[3\]
*441 SPINET\.genblk1\[3\]\.NODE\.NODE\.txbuf\[4\]
*442 SPINET\.genblk1\[3\]\.NODE\.NODE\.txbuf\[5\]
*443 SPINET\.genblk1\[3\]\.NODE\.NODE\.txbuf\[6\]
*444 SPINET\.genblk1\[3\]\.NODE\.NODE\.txbuf\[7\]
*445 SPINET\.genblk1\[3\]\.NODE\.NODE\.txready
*446 SPINET\.genblk1\[3\]\.NODE\.SPI\.bitcount\[0\]
*447 SPINET\.genblk1\[3\]\.NODE\.SPI\.bitcount\[1\]
*448 SPINET\.genblk1\[3\]\.NODE\.SPI\.bitcount\[2\]
*449 SPINET\.genblk1\[3\]\.NODE\.SPI\.bitcount\[3\]
*450 SPINET\.genblk1\[3\]\.NODE\.SPI\.shiftreg\[0\]
*451 SPINET\.genblk1\[3\]\.NODE\.SPI\.shiftreg\[10\]
*452 SPINET\.genblk1\[3\]\.NODE\.SPI\.shiftreg\[11\]
*453 SPINET\.genblk1\[3\]\.NODE\.SPI\.shiftreg\[12\]
*454 SPINET\.genblk1\[3\]\.NODE\.SPI\.shiftreg\[13\]
*455 SPINET\.genblk1\[3\]\.NODE\.SPI\.shiftreg\[14\]
*456 SPINET\.genblk1\[3\]\.NODE\.SPI\.shiftreg\[15\]
*457 SPINET\.genblk1\[3\]\.NODE\.SPI\.shiftreg\[1\]
*458 SPINET\.genblk1\[3\]\.NODE\.SPI\.shiftreg\[2\]
*459 SPINET\.genblk1\[3\]\.NODE\.SPI\.shiftreg\[3\]
*460 SPINET\.genblk1\[3\]\.NODE\.SPI\.shiftreg\[4\]
*461 SPINET\.genblk1\[3\]\.NODE\.SPI\.shiftreg\[5\]
*462 SPINET\.genblk1\[3\]\.NODE\.SPI\.shiftreg\[6\]
*463 SPINET\.genblk1\[3\]\.NODE\.SPI\.shiftreg\[7\]
*464 SPINET\.genblk1\[3\]\.NODE\.SPI\.shiftreg\[8\]
*465 SPINET\.genblk1\[3\]\.NODE\.SPI\.shiftreg\[9\]
*466 _0000_
*467 _0001_
*468 _0002_
*469 _0003_
*470 _0004_
*471 _0005_
*472 _0006_
*473 _0007_
*474 _0008_
*475 _0009_
*476 _0010_
*477 _0011_
*478 _0012_
*479 _0013_
*480 _0014_
*481 _0015_
*482 _0016_
*483 _0017_
*484 _0018_
*485 _0019_
*486 _0020_
*487 _0021_
*488 _0022_
*489 _0023_
*490 _0024_
*491 _0025_
*492 _0026_
*493 _0027_
*494 _0028_
*495 _0029_
*496 _0030_
*497 _0031_
*498 _0032_
*499 _0033_
*500 _0034_
*501 _0035_
*502 _0036_
*503 _0037_
*504 _0038_
*505 _0039_
*506 _0040_
*507 _0041_
*508 _0042_
*509 _0043_
*510 _0044_
*511 _0045_
*512 _0046_
*513 _0047_
*514 _0048_
*515 _0049_
*516 _0050_
*517 _0051_
*518 _0052_
*519 _0053_
*520 _0054_
*521 _0055_
*522 _0056_
*523 _0057_
*524 _0058_
*525 _0059_
*526 _0060_
*527 _0061_
*528 _0062_
*529 _0063_
*530 _0064_
*531 _0065_
*532 _0066_
*533 _0067_
*534 _0068_
*535 _0069_
*536 _0070_
*537 _0071_
*538 _0072_
*539 _0073_
*540 _0074_
*541 _0075_
*542 _0076_
*543 _0077_
*544 _0078_
*545 _0079_
*546 _0080_
*547 _0081_
*548 _0082_
*549 _0083_
*550 _0084_
*551 _0085_
*552 _0086_
*553 _0087_
*554 _0088_
*555 _0089_
*556 _0090_
*557 _0091_
*558 _0092_
*559 _0093_
*560 _0094_
*561 _0095_
*562 _0096_
*563 _0097_
*564 _0098_
*565 _0099_
*566 _0100_
*567 _0101_
*568 _0102_
*569 _0103_
*570 _0104_
*571 _0105_
*572 _0106_
*573 _0107_
*574 _0108_
*575 _0109_
*576 _0110_
*577 _0111_
*578 _0112_
*579 _0113_
*580 _0114_
*581 _0115_
*582 _0116_
*583 _0117_
*584 _0118_
*585 _0119_
*586 _0120_
*587 _0121_
*588 _0122_
*589 _0123_
*590 _0124_
*591 _0125_
*592 _0126_
*593 _0127_
*594 _0128_
*595 _0129_
*596 _0130_
*597 _0131_
*598 _0132_
*599 _0133_
*600 _0134_
*601 _0135_
*602 _0136_
*603 _0137_
*604 _0138_
*605 _0139_
*606 _0140_
*607 _0141_
*608 _0142_
*609 _0143_
*610 _0144_
*611 _0145_
*612 _0146_
*613 _0147_
*614 _0148_
*615 _0149_
*616 _0150_
*617 _0151_
*618 _0152_
*619 _0153_
*620 _0154_
*621 _0155_
*622 _0156_
*623 _0157_
*624 _0158_
*625 _0159_
*626 _0160_
*627 _0161_
*628 _0162_
*629 _0163_
*630 _0164_
*631 _0165_
*632 _0166_
*633 _0167_
*634 _0168_
*635 _0169_
*636 _0170_
*637 _0171_
*638 _0172_
*639 _0173_
*640 _0174_
*641 _0175_
*642 _0176_
*643 _0177_
*644 _0178_
*645 _0179_
*646 _0180_
*647 _0181_
*648 _0182_
*649 _0183_
*650 _0184_
*651 _0185_
*652 _0186_
*653 _0187_
*654 _0188_
*655 _0189_
*656 _0190_
*657 _0191_
*658 _0192_
*659 _0193_
*660 _0194_
*661 _0195_
*662 _0196_
*663 _0197_
*664 _0198_
*665 _0199_
*666 _0200_
*667 _0201_
*668 _0202_
*669 _0203_
*670 _0204_
*671 _0205_
*672 _0206_
*673 _0207_
*674 _0208_
*675 _0209_
*676 _0210_
*677 _0211_
*678 _0212_
*679 _0213_
*680 _0214_
*681 _0215_
*682 _0216_
*683 _0217_
*684 _0218_
*685 _0219_
*686 _0220_
*687 _0221_
*688 _0222_
*689 _0223_
*690 _0224_
*691 _0225_
*692 _0226_
*693 _0227_
*694 _0228_
*695 _0229_
*696 _0230_
*697 _0231_
*698 _0232_
*699 _0233_
*700 _0234_
*701 _0235_
*702 _0236_
*703 _0237_
*704 _0238_
*705 _0239_
*706 _0240_
*707 _0241_
*708 _0242_
*709 _0243_
*710 _0244_
*711 _0245_
*712 _0246_
*713 _0247_
*714 _0248_
*715 _0249_
*716 _0250_
*717 _0251_
*718 _0252_
*719 _0253_
*720 _0254_
*721 _0255_
*722 _0256_
*723 _0257_
*724 _0258_
*725 _0259_
*726 _0260_
*727 _0261_
*728 _0262_
*729 _0263_
*730 _0264_
*731 _0265_
*732 _0266_
*733 _0267_
*734 _0268_
*735 _0269_
*736 _0270_
*737 _0271_
*738 _0272_
*739 _0273_
*740 _0274_
*741 _0275_
*742 _0276_
*743 _0277_
*744 _0278_
*745 _0279_
*746 _0280_
*747 _0281_
*748 _0282_
*749 _0283_
*750 _0284_
*751 _0285_
*752 _0286_
*753 _0287_
*754 _0288_
*755 _0289_
*756 _0290_
*757 _0291_
*758 _0292_
*759 _0293_
*760 _0294_
*761 _0295_
*762 _0296_
*763 _0297_
*764 _0298_
*765 _0299_
*766 _0300_
*767 _0301_
*768 _0302_
*769 _0303_
*770 _0304_
*771 _0305_
*772 _0306_
*773 _0307_
*774 _0308_
*775 _0309_
*776 _0310_
*777 _0311_
*778 _0312_
*779 _0313_
*780 _0314_
*781 _0315_
*782 _0316_
*783 _0317_
*784 _0318_
*785 _0319_
*786 _0320_
*787 _0321_
*788 _0322_
*789 _0323_
*790 _0324_
*791 _0325_
*792 _0326_
*793 _0327_
*794 _0328_
*795 _0329_
*796 _0330_
*797 _0331_
*798 _0332_
*799 _0333_
*800 _0334_
*801 _0335_
*802 _0336_
*803 _0337_
*804 _0338_
*805 _0339_
*806 _0340_
*807 _0341_
*808 _0342_
*809 _0343_
*810 _0344_
*811 _0345_
*812 _0346_
*813 _0347_
*814 _0348_
*815 _0349_
*816 _0350_
*817 _0351_
*818 _0352_
*819 _0353_
*820 _0354_
*821 _0355_
*822 _0356_
*823 _0357_
*824 _0358_
*825 _0359_
*826 _0360_
*827 _0361_
*828 _0362_
*829 _0363_
*830 _0364_
*831 _0365_
*832 _0366_
*833 _0367_
*834 _0368_
*835 _0369_
*836 _0370_
*837 _0371_
*838 _0372_
*839 _0373_
*840 _0374_
*841 _0375_
*842 _0376_
*843 _0377_
*844 _0378_
*845 _0379_
*846 _0380_
*847 _0381_
*848 _0382_
*849 _0383_
*850 _0384_
*851 _0385_
*852 _0386_
*853 _0387_
*854 _0388_
*855 _0389_
*856 _0390_
*857 _0391_
*858 _0392_
*859 _0393_
*860 _0394_
*861 _0395_
*862 _0396_
*863 _0397_
*864 _0398_
*865 _0399_
*866 _0400_
*867 _0401_
*868 _0402_
*869 _0403_
*870 _0404_
*871 _0405_
*872 _0406_
*873 _0407_
*874 _0408_
*875 _0409_
*876 _0410_
*877 _0411_
*878 _0412_
*879 _0413_
*880 _0414_
*881 _0415_
*882 _0416_
*883 _0417_
*884 _0418_
*885 _0419_
*886 _0420_
*887 _0421_
*888 _0422_
*889 _0423_
*890 _0424_
*891 _0425_
*892 _0426_
*893 _0427_
*894 _0428_
*895 _0429_
*896 _0430_
*897 _0431_
*898 _0432_
*899 _0433_
*900 _0434_
*901 _0435_
*902 _0436_
*903 _0437_
*904 _0438_
*905 _0439_
*906 _0440_
*907 _0441_
*908 _0442_
*909 _0443_
*910 _0444_
*911 _0445_
*912 _0446_
*913 _0447_
*914 _0448_
*915 _0449_
*916 _0450_
*917 _0451_
*918 _0452_
*919 _0453_
*920 _0454_
*921 _0455_
*922 _0456_
*923 _0457_
*924 _0458_
*925 _0459_
*926 _0460_
*927 _0461_
*928 _0462_
*929 _0463_
*930 _0464_
*931 _0465_
*932 _0466_
*933 _0467_
*934 _0468_
*935 _0469_
*936 _0470_
*937 _0471_
*938 _0472_
*939 _0473_
*940 _0474_
*941 _0475_
*942 _0476_
*943 _0477_
*944 _0478_
*945 _0479_
*946 _0480_
*947 _0481_
*948 _0482_
*949 _0483_
*950 _0484_
*951 _0485_
*952 _0486_
*953 _0487_
*954 _0488_
*955 _0489_
*956 _0490_
*957 _0491_
*958 _0492_
*959 _0493_
*960 _0494_
*961 _0495_
*962 _0496_
*963 _0497_
*964 _0498_
*965 _0499_
*966 _0500_
*967 _0501_
*968 _0502_
*969 _0503_
*970 _0504_
*971 _0505_
*972 _0506_
*973 _0507_
*974 _0508_
*975 _0509_
*976 _0510_
*977 _0511_
*978 _0512_
*979 _0513_
*980 _0514_
*981 _0515_
*982 _0516_
*983 _0517_
*984 _0518_
*985 _0519_
*986 _0520_
*987 _0521_
*988 _0522_
*989 _0523_
*990 _0524_
*991 _0525_
*992 _0526_
*993 _0527_
*994 _0528_
*995 _0529_
*996 _0530_
*997 _0531_
*998 _0532_
*999 _0533_
*1000 _0534_
*1001 _0535_
*1002 _0536_
*1003 _0537_
*1004 _0538_
*1005 _0539_
*1006 _0540_
*1007 _0541_
*1008 _0542_
*1009 _0543_
*1010 _0544_
*1011 _0545_
*1012 _0546_
*1013 _0547_
*1014 _0548_
*1015 _0549_
*1016 _0550_
*1017 _0551_
*1018 _0552_
*1019 _0553_
*1020 _0554_
*1021 _0555_
*1022 _0556_
*1023 _0557_
*1024 _0558_
*1025 _0559_
*1026 _0560_
*1027 _0561_
*1028 _0562_
*1029 _0563_
*1030 _0564_
*1031 _0565_
*1032 _0566_
*1033 _0567_
*1034 _0568_
*1035 _0569_
*1036 _0570_
*1037 _0571_
*1038 _0572_
*1039 _0573_
*1040 _0574_
*1041 _0575_
*1042 _0576_
*1043 _0577_
*1044 _0578_
*1045 _0579_
*1046 _0580_
*1047 _0581_
*1048 _0582_
*1049 _0583_
*1050 _0584_
*1051 _0585_
*1052 _0586_
*1053 _0587_
*1054 _0588_
*1055 _0589_
*1056 _0590_
*1057 _0591_
*1058 _0592_
*1059 _0593_
*1060 _0594_
*1061 _0595_
*1062 _0596_
*1063 _0597_
*1064 _0598_
*1065 _0599_
*1066 _0600_
*1067 _0601_
*1068 _0602_
*1069 _0603_
*1070 _0604_
*1071 _0605_
*1072 _0606_
*1073 _0607_
*1074 _0608_
*1075 _0609_
*1076 _0610_
*1077 _0611_
*1078 _0612_