*SPEF "ieee 1481-1999"
*DESIGN "tt_um_wokwi_347417602591556180"
*DATE "11:11:11 Fri 11 11, 1111"
*VENDOR "OpenRCX"
*PROGRAM "Parallel Extraction"
*VERSION "1.0"
*DESIGN_FLOW "NAME_SCOPE LOCAL" "PIN_CAP NONE"
*DIVIDER /
*DELIMITER :
*BUS_DELIMITER []
*T_UNIT 1 NS
*C_UNIT 1 PF
*R_UNIT 1 OHM
*L_UNIT 1 HENRY

*NAME_MAP
*1 clk
*2 ena
*3 rst_n
*4 ui_in[0]
*5 ui_in[1]
*6 ui_in[2]
*7 ui_in[3]
*8 ui_in[4]
*9 ui_in[5]
*10 ui_in[6]
*11 ui_in[7]
*12 uio_in[0]
*13 uio_in[1]
*14 uio_in[2]
*15 uio_in[3]
*16 uio_in[4]
*17 uio_in[5]
*18 uio_in[6]
*19 uio_in[7]
*20 net7
*21 net8
*22 net9
*23 net10
*24 net11
*25 net12
*26 net13
*27 net14
*28 net15
*29 net16
*30 net17
*31 net18
*32 net19
*33 net20
*34 net21
*35 net22
*36 net23
*37 uo_out[1]
*38 uo_out[2]
*39 uo_out[3]
*40 uo_out[4]
*41 uo_out[5]
*42 net24
*43 net25
*46 _00_
*47 _01_
*48 _02_
*49 _03_
*50 _04_
*51 _05_
*52 _06_
*53 _07_
*54 _08_
*55 flipflop1\.d
*56 flipflop1\.q
*57 flipflop2\.d
*58 flipflop2\.q
*59 flipflop4\.q
*60 flipflop5\.q
*61 flipflop6\.q
*62 gate1\.out
*63 net1
*64 net2
*65 net3
*66 net4
*67 net5
*68 net6
*69 FILLER_0_109
*70 FILLER_0_113
*71 FILLER_0_125
*72 FILLER_0_137
*73 FILLER_0_141
*74 FILLER_0_15
*75 FILLER_0_153
*76 FILLER_0_165
*77 FILLER_0_169
*78 FILLER_0_181
*79 FILLER_0_193
*80 FILLER_0_197
*81 FILLER_0_209
*82 FILLER_0_221
*83 FILLER_0_225
*84 FILLER_0_237
*85 FILLER_0_249
*86 FILLER_0_253
*87 FILLER_0_265
*88 FILLER_0_27
*89 FILLER_0_277
*90 FILLER_0_281
*91 FILLER_0_29
*92 FILLER_0_293
*93 FILLER_0_3
*94 FILLER_0_305
*95 FILLER_0_309
*96 FILLER_0_321
*97 FILLER_0_333
*98 FILLER_0_337
*99 FILLER_0_41
*100 FILLER_0_53
*101 FILLER_0_57
*102 FILLER_0_69
*103 FILLER_0_81
*104 FILLER_0_85
*105 FILLER_0_97
*106 FILLER_10_109
*107 FILLER_10_121
*108 FILLER_10_133
*109 FILLER_10_139
*110 FILLER_10_141
*111 FILLER_10_15
*112 FILLER_10_153
*113 FILLER_10_165
*114 FILLER_10_177
*115 FILLER_10_189
*116 FILLER_10_195
*117 FILLER_10_197
*118 FILLER_10_209
*119 FILLER_10_221
*120 FILLER_10_233
*121 FILLER_10_245
*122 FILLER_10_251
*123 FILLER_10_253
*124 FILLER_10_265
*125 FILLER_10_27
*126 FILLER_10_277
*127 FILLER_10_289
*128 FILLER_10_29
*129 FILLER_10_3
*130 FILLER_10_301
*131 FILLER_10_307
*132 FILLER_10_309
*133 FILLER_10_321
*134 FILLER_10_333
*135 FILLER_10_337
*136 FILLER_10_41
*137 FILLER_10_53
*138 FILLER_10_65
*139 FILLER_10_77
*140 FILLER_10_83
*141 FILLER_10_85
*142 FILLER_10_97
*143 FILLER_11_105
*144 FILLER_11_111
*145 FILLER_11_113
*146 FILLER_11_125
*147 FILLER_11_137
*148 FILLER_11_149
*149 FILLER_11_15
*150 FILLER_11_161
*151 FILLER_11_167
*152 FILLER_11_169
*153 FILLER_11_181
*154 FILLER_11_193
*155 FILLER_11_205
*156 FILLER_11_217
*157 FILLER_11_223
*158 FILLER_11_225
*159 FILLER_11_237
*160 FILLER_11_249
*161 FILLER_11_261
*162 FILLER_11_27
*163 FILLER_11_273
*164 FILLER_11_279
*165 FILLER_11_281
*166 FILLER_11_293
*167 FILLER_11_3
*168 FILLER_11_305
*169 FILLER_11_317
*170 FILLER_11_329
*171 FILLER_11_335
*172 FILLER_11_337
*173 FILLER_11_39
*174 FILLER_11_51
*175 FILLER_11_55
*176 FILLER_11_57
*177 FILLER_11_69
*178 FILLER_11_81
*179 FILLER_11_93
*180 FILLER_12_109
*181 FILLER_12_121
*182 FILLER_12_133
*183 FILLER_12_139
*184 FILLER_12_141
*185 FILLER_12_15
*186 FILLER_12_153
*187 FILLER_12_165
*188 FILLER_12_177
*189 FILLER_12_189
*190 FILLER_12_195
*191 FILLER_12_197
*192 FILLER_12_209
*193 FILLER_12_221
*194 FILLER_12_233
*195 FILLER_12_245
*196 FILLER_12_251
*197 FILLER_12_253
*198 FILLER_12_265
*199 FILLER_12_27
*200 FILLER_12_277
*201 FILLER_12_289
*202 FILLER_12_29
*203 FILLER_12_3
*204 FILLER_12_301
*205 FILLER_12_307
*206 FILLER_12_309
*207 FILLER_12_321
*208 FILLER_12_333
*209 FILLER_12_337
*210 FILLER_12_41
*211 FILLER_12_53
*212 FILLER_12_65
*213 FILLER_12_77
*214 FILLER_12_83
*215 FILLER_12_85
*216 FILLER_12_97
*217 FILLER_13_105
*218 FILLER_13_111
*219 FILLER_13_113
*220 FILLER_13_125
*221 FILLER_13_137
*222 FILLER_13_149
*223 FILLER_13_15
*224 FILLER_13_161
*225 FILLER_13_167
*226 FILLER_13_169
*227 FILLER_13_181
*228 FILLER_13_193
*229 FILLER_13_205
*230 FILLER_13_217
*231 FILLER_13_223
*232 FILLER_13_225
*233 FILLER_13_237
*234 FILLER_13_249
*235 FILLER_13_261
*236 FILLER_13_27
*237 FILLER_13_273
*238 FILLER_13_279
*239 FILLER_13_281
*240 FILLER_13_293
*241 FILLER_13_3
*242 FILLER_13_305
*243 FILLER_13_317
*244 FILLER_13_329
*245 FILLER_13_335
*246 FILLER_13_337
*247 FILLER_13_39
*248 FILLER_13_51
*249 FILLER_13_55
*250 FILLER_13_57
*251 FILLER_13_69
*252 FILLER_13_81
*253 FILLER_13_93
*254 FILLER_14_109
*255 FILLER_14_121
*256 FILLER_14_133
*257 FILLER_14_139
*258 FILLER_14_141
*259 FILLER_14_15
*260 FILLER_14_153
*261 FILLER_14_165
*262 FILLER_14_177
*263 FILLER_14_189
*264 FILLER_14_195
*265 FILLER_14_197
*266 FILLER_14_209
*267 FILLER_14_221
*268 FILLER_14_233
*269 FILLER_14_245
*270 FILLER_14_251
*271 FILLER_14_253
*272 FILLER_14_265
*273 FILLER_14_27
*274 FILLER_14_277
*275 FILLER_14_289
*276 FILLER_14_29
*277 FILLER_14_3
*278 FILLER_14_301
*279 FILLER_14_307
*280 FILLER_14_309
*281 FILLER_14_321
*282 FILLER_14_333
*283 FILLER_14_337
*284 FILLER_14_41
*285 FILLER_14_53
*286 FILLER_14_65
*287 FILLER_14_77
*288 FILLER_14_83
*289 FILLER_14_85
*290 FILLER_14_97
*291 FILLER_15_105
*292 FILLER_15_111
*293 FILLER_15_113
*294 FILLER_15_125
*295 FILLER_15_137
*296 FILLER_15_149
*297 FILLER_15_15
*298 FILLER_15_161
*299 FILLER_15_167
*300 FILLER_15_169
*301 FILLER_15_181
*302 FILLER_15_193
*303 FILLER_15_205
*304 FILLER_15_217
*305 FILLER_15_223
*306 FILLER_15_225
*307 FILLER_15_237
*308 FILLER_15_249
*309 FILLER_15_261
*310 FILLER_15_27
*311 FILLER_15_273
*312 FILLER_15_279
*313 FILLER_15_281
*314 FILLER_15_293
*315 FILLER_15_3
*316 FILLER_15_305
*317 FILLER_15_317
*318 FILLER_15_329
*319 FILLER_15_335
*320 FILLER_15_337
*321 FILLER_15_39
*322 FILLER_15_51
*323 FILLER_15_55
*324 FILLER_15_57
*325 FILLER_15_69
*326 FILLER_15_81
*327 FILLER_15_93
*328 FILLER_16_109
*329 FILLER_16_121
*330 FILLER_16_133
*331 FILLER_16_139
*332 FILLER_16_141
*333 FILLER_16_15
*334 FILLER_16_153
*335 FILLER_16_165
*336 FILLER_16_177
*337 FILLER_16_189
*338 FILLER_16_195
*339 FILLER_16_197
*340 FILLER_16_209
*341 FILLER_16_221
*342 FILLER_16_233
*343 FILLER_16_245
*344 FILLER_16_251
*345 FILLER_16_253
*346 FILLER_16_265
*347 FILLER_16_27
*348 FILLER_16_277
*349 FILLER_16_289
*350 FILLER_16_29
*351 FILLER_16_3
*352 FILLER_16_301
*353 FILLER_16_307
*354 FILLER_16_309
*355 FILLER_16_321
*356 FILLER_16_333
*357 FILLER_16_337
*358 FILLER_16_41
*359 FILLER_16_53
*360 FILLER_16_65
*361 FILLER_16_77
*362 FILLER_16_83
*363 FILLER_16_85
*364 FILLER_16_97
*365 FILLER_17_105
*366 FILLER_17_111
*367 FILLER_17_113
*368 FILLER_17_125
*369 FILLER_17_137
*370 FILLER_17_149
*371 FILLER_17_15
*372 FILLER_17_161
*373 FILLER_17_167
*374 FILLER_17_169
*375 FILLER_17_181
*376 FILLER_17_193
*377 FILLER_17_205
*378 FILLER_17_217
*379 FILLER_17_223
*380 FILLER_17_225
*381 FILLER_17_237
*382 FILLER_17_249
*383 FILLER_17_261
*384 FILLER_17_27
*385 FILLER_17_273
*386 FILLER_17_279
*387 FILLER_17_281
*388 FILLER_17_293
*389 FILLER_17_3
*390 FILLER_17_305
*391 FILLER_17_317
*392 FILLER_17_329
*393 FILLER_17_335
*394 FILLER_17_337
*395 FILLER_17_39
*396 FILLER_17_51
*397 FILLER_17_55
*398 FILLER_17_57
*399 FILLER_17_69
*400 FILLER_17_81
*401 FILLER_17_93
*402 FILLER_18_109
*403 FILLER_18_121
*404 FILLER_18_133
*405 FILLER_18_139
*406 FILLER_18_141
*407 FILLER_18_15
*408 FILLER_18_153
*409 FILLER_18_165
*410 FILLER_18_177
*411 FILLER_18_189
*412 FILLER_18_195
*413 FILLER_18_197
*414 FILLER_18_209
*415 FILLER_18_221
*416 FILLER_18_233
*417 FILLER_18_245
*418 FILLER_18_251
*419 FILLER_18_253
*420 FILLER_18_265
*421 FILLER_18_27
*422 FILLER_18_277
*423 FILLER_18_289
*424 FILLER_18_29
*425 FILLER_18_3
*426 FILLER_18_301
*427 FILLER_18_307
*428 FILLER_18_309
*429 FILLER_18_321
*430 FILLER_18_333
*431 FILLER_18_337
*432 FILLER_18_41
*433 FILLER_18_53
*434 FILLER_18_65
*435 FILLER_18_77
*436 FILLER_18_83
*437 FILLER_18_85
*438 FILLER_18_97
*439 FILLER_19_105
*440 FILLER_19_111
*441 FILLER_19_113
*442 FILLER_19_125
*443 FILLER_19_137
*444 FILLER_19_149
*445 FILLER_19_15
*446 FILLER_19_161
*447 FILLER_19_167
*448 FILLER_19_169
*449 FILLER_19_181
*450 FILLER_19_193
*451 FILLER_19_205
*452 FILLER_19_217
*453 FILLER_19_223
*454 FILLER_19_225
*455 FILLER_19_237
*456 FILLER_19_249
*457 FILLER_19_261
*458 FILLER_19_27
*459 FILLER_19_273
*460 FILLER_19_279
*461 FILLER_19_281
*462 FILLER_19_293
*463 FILLER_19_3
*464 FILLER_19_305
*465 FILLER_19_317
*466 FILLER_19_329
*467 FILLER_19_335
*468 FILLER_19_337
*469 FILLER_19_39
*470 FILLER_19_51
*471 FILLER_19_55
*472 FILLER_19_57
*473 FILLER_19_69
*474 FILLER_19_81
*475 FILLER_19_93
*476 FILLER_1_105
*477 FILLER_1_111
*478 FILLER_1_113
*479 FILLER_1_125
*480 FILLER_1_137
*481 FILLER_1_149
*482 FILLER_1_15
*483 FILLER_1_161
*484 FILLER_1_167
*485 FILLER_1_169
*486 FILLER_1_181
*487 FILLER_1_193
*488 FILLER_1_205
*489 FILLER_1_217
*490 FILLER_1_223
*491 FILLER_1_225
*492 FILLER_1_237
*493 FILLER_1_249
*494 FILLER_1_261
*495 FILLER_1_27
*496 FILLER_1_273
*497 FILLER_1_279
*498 FILLER_1_281
*499 FILLER_1_293
*500 FILLER_1_3
*501 FILLER_1_305
*502 FILLER_1_317
*503 FILLER_1_329
*504 FILLER_1_335
*505 FILLER_1_337
*506 FILLER_1_39
*507 FILLER_1_51
*508 FILLER_1_55
*509 FILLER_1_57
*510 FILLER_1_69
*511 FILLER_1_81
*512 FILLER_1_93
*513 FILLER_20_109
*514 FILLER_20_121
*515 FILLER_20_133
*516 FILLER_20_139
*517 FILLER_20_141
*518 FILLER_20_15
*519 FILLER_20_153
*520 FILLER_20_165
*521 FILLER_20_177
*522 FILLER_20_189
*523 FILLER_20_195
*524 FILLER_20_197
*525 FILLER_20_209
*526 FILLER_20_221
*527 FILLER_20_233
*528 FILLER_20_245
*529 FILLER_20_251
*530 FILLER_20_253
*531 FILLER_20_265
*532 FILLER_20_27
*533 FILLER_20_277
*534 FILLER_20_289
*535 FILLER_20_29
*536 FILLER_20_3
*537 FILLER_20_301
*538 FILLER_20_307
*539 FILLER_20_309
*540 FILLER_20_321
*541 FILLER_20_333
*542 FILLER_20_337
*543 FILLER_20_41
*544 FILLER_20_53
*545 FILLER_20_65
*546 FILLER_20_77
*547 FILLER_20_83
*548 FILLER_20_85
*549 FILLER_20_97
*550 FILLER_21_105
*551 FILLER_21_111
*552 FILLER_21_113
*553 FILLER_21_125
*554 FILLER_21_137
*555 FILLER_21_149
*556 FILLER_21_15
*557 FILLER_21_161
*558 FILLER_21_167
*559 FILLER_21_169
*560 FILLER_21_181
*561 FILLER_21_193
*562 FILLER_21_205
*563 FILLER_21_217
*564 FILLER_21_223
*565 FILLER_21_225
*566 FILLER_21_237
*567 FILLER_21_249
*568 FILLER_21_261
*569 FILLER_21_27
*570 FILLER_21_273
*571 FILLER_21_279
*572 FILLER_21_281
*573 FILLER_21_293
*574 FILLER_21_3
*575 FILLER_21_305
*576 FILLER_21_317
*577 FILLER_21_329
*578 FILLER_21_335
*579 FILLER_21_337
*580 FILLER_21_39
*581 FILLER_21_51
*582 FILLER_21_55
*583 FILLER_21_57
*584 FILLER_21_69
*585 FILLER_21_81
*586 FILLER_21_93
*587 FILLER_22_109
*588 FILLER_22_121
*589 FILLER_22_133
*590 FILLER_22_139
*591 FILLER_22_141
*592 FILLER_22_15
*593 FILLER_22_153
*594 FILLER_22_165
*595 FILLER_22_177
*596 FILLER_22_189
*597 FILLER_22_195
*598 FILLER_22_197
*599 FILLER_22_209
*600 FILLER_22_221
*601 FILLER_22_233
*602 FILLER_22_245
*603 FILLER_22_251
*604 FILLER_22_253
*605 FILLER_22_265
*606 FILLER_22_27
*607 FILLER_22_277
*608 FILLER_22_289
*609 FILLER_22_29
*610 FILLER_22_3
*611 FILLER_22_301
*612 FILLER_22_307
*613 FILLER_22_309
*614 FILLER_22_321
*615 FILLER_22_333
*616 FILLER_22_337
*617 FILLER_22_41
*618 FILLER_22_53
*619 FILLER_22_65
*620 FILLER_22_77
*621 FILLER_22_83
*622 FILLER_22_85
*623 FILLER_22_97
*624 FILLER_23_105
*625 FILLER_23_111
*626 FILLER_23_113
*627 FILLER_23_125
*628 FILLER_23_137
*629 FILLER_23_149
*630 FILLER_23_15
*631 FILLER_23_161
*632 FILLER_23_167
*633 FILLER_23_169
*634 FILLER_23_181
*635 FILLER_23_193
*636 FILLER_23_205
*637 FILLER_23_217
*638 FILLER_23_223
*639 FILLER_23_225
*640 FILLER_23_237
*641 FILLER_23_249
*642 FILLER_23_261
*643 FILLER_23_27
*644 FILLER_23_273
*645 FILLER_23_279
*646 FILLER_23_281
*647 FILLER_23_293
*648 FILLER_23_3
*649 FILLER_23_305
*650 FILLER_23_317
*651 FILLER_23_329
*652 FILLER_23_335
*653 FILLER_23_337
*654 FILLER_23_39
*655 FILLER_23_51
*656 FILLER_23_55
*657 FILLER_23_57
*658 FILLER_23_69
*659 FILLER_23_81
*660 FILLER_23_93
*661 FILLER_24_109
*662 FILLER_24_121
*663 FILLER_24_133
*664 FILLER_24_139
*665 FILLER_24_141
*666 FILLER_24_15
*667 FILLER_24_153
*668 FILLER_24_165
*669 FILLER_24_177
*670 FILLER_24_189
*671 FILLER_24_195
*672 FILLER_24_197
*673 FILLER_24_209
*674 FILLER_24_221
*675 FILLER_24_233
*676 FILLER_24_245
*677 FILLER_24_251
*678 FILLER_24_253
*679 FILLER_24_265
*680 FILLER_24_27
*681 FILLER_24_277
*682 FILLER_24_289
*683 FILLER_24_29
*684 FILLER_24_3
*685 FILLER_24_301
*686 FILLER_24_307
*687 FILLER_24_309
*688 FILLER_24_321
*689 FILLER_24_333
*690 FILLER_24_337
*691 FILLER_24_41
*692 FILLER_24_53
*693 FILLER_24_65
*694 FILLER_24_77
*695 FILLER_24_83
*696 FILLER_24_85
*697 FILLER_24_97
*698 FILLER_25_105
*699 FILLER_25_111
*700 FILLER_25_113
*701 FILLER_25_125
*702 FILLER_25_137
*703 FILLER_25_149
*704 FILLER_25_15
*705 FILLER_25_161
*706 FILLER_25_167
*707 FILLER_25_169
*708 FILLER_25_181
*709 FILLER_25_193
*710 FILLER_25_205
*711 FILLER_25_217
*712 FILLER_25_223
*713 FILLER_25_225
*714 FILLER_25_237
*715 FILLER_25_249
*716 FILLER_25_261
*717 FILLER_25_27
*718 FILLER_25_273
*719 FILLER_25_279
*720 FILLER_25_281
*721 FILLER_25_293
*722 FILLER_25_3
*723 FILLER_25_305
*724 FILLER_25_317
*725 FILLER_25_329
*726 FILLER_25_335
*727 FILLER_25_337
*728 FILLER_25_39
*729 FILLER_25_51
*730 FILLER_25_55
*731 FILLER_25_57
*732 FILLER_25_69
*733 FILLER_25_81
*734 FILLER_25_93
*735 FILLER_26_109
*736 FILLER_26_121
*737 FILLER_26_133
*738 FILLER_26_139
*739 FILLER_26_141
*740 FILLER_26_15
*741 FILLER_26_153
*742 FILLER_26_165
*743 FILLER_26_177
*744 FILLER_26_189
*745 FILLER_26_195
*746 FILLER_26_197
*747 FILLER_26_209
*748 FILLER_26_221
*749 FILLER_26_233
*750 FILLER_26_245
*751 FILLER_26_251
*752 FILLER_26_253
*753 FILLER_26_265
*754 FILLER_26_27
*755 FILLER_26_277
*756 FILLER_26_289
*757 FILLER_26_29
*758 FILLER_26_3
*759 FILLER_26_301
*760 FILLER_26_307
*761 FILLER_26_309
*762 FILLER_26_321
*763 FILLER_26_333
*764 FILLER_26_337
*765 FILLER_26_41
*766 FILLER_26_53
*767 FILLER_26_65
*768 FILLER_26_77
*769 FILLER_26_83
*770 FILLER_26_85
*771 FILLER_26_97
*772 FILLER_27_105
*773 FILLER_27_111
*774 FILLER_27_113
*775 FILLER_27_125
*776 FILLER_27_137
*777 FILLER_27_149
*778 FILLER_27_15
*779 FILLER_27_161
*780 FILLER_27_167
*781 FILLER_27_169
*782 FILLER_27_181
*783 FILLER_27_193
*784 FILLER_27_205
*785 FILLER_27_217
*786 FILLER_27_223
*787 FILLER_27_225
*788 FILLER_27_237
*789 FILLER_27_249
*790 FILLER_27_261
*791 FILLER_27_27
*792 FILLER_27_273
*793 FILLER_27_279
*794 FILLER_27_281
*795 FILLER_27_293
*796 FILLER_27_3
*797 FILLER_27_305
*798 FILLER_27_317
*799 FILLER_27_329
*800 FILLER_27_335
*801 FILLER_27_337
*802 FILLER_27_39
*803 FILLER_27_51
*804 FILLER_27_55
*805 FILLER_27_57
*806 FILLER_27_69
*807 FILLER_27_81
*808 FILLER_27_93
*809 FILLER_28_109
*810 FILLER_28_121
*811 FILLER_28_133
*812 FILLER_28_139
*813 FILLER_28_141
*814 FILLER_28_15
*815 FILLER_28_153
*816 FILLER_28_165
*817 FILLER_28_177
*818 FILLER_28_189
*819 FILLER_28_195
*820 FILLER_28_197
*821 FILLER_28_209
*822 FILLER_28_221
*823 FILLER_28_233
*824 FILLER_28_245
*825 FILLER_28_251
*826 FILLER_28_253
*827 FILLER_28_265
*828 FILLER_28_27
*829 FILLER_28_277
*830 FILLER_28_289
*831 FILLER_28_29
*832 FILLER_28_3
*833 FILLER_28_301
*834 FILLER_28_307
*835 FILLER_28_309
*836 FILLER_28_321
*837 FILLER_28_333
*838 FILLER_28_337
*839 FILLER_28_41
*840 FILLER_28_53
*841 FILLER_28_65
*842 FILLER_28_77
*843 FILLER_28_83
*844 FILLER_28_85
*845 FILLER_28_97
*846 FILLER_29_105
*847 FILLER_29_111
*848 FILLER_29_113
*849 FILLER_29_125
*850 FILLER_29_137
*851 FILLER_29_149
*852 FILLER_29_15
*853 FILLER_29_161
*854 FILLER_29_167
*855 FILLER_29_169
*856 FILLER_29_181
*857 FILLER_29_193
*858 FILLER_29_205
*859 FILLER_29_217
*860 FILLER_29_223
*861 FILLER_29_225
*862 FILLER_29_237
*863 FILLER_29_249
*864 FILLER_29_261
*865 FILLER_29_27
*866 FILLER_29_273
*867 FILLER_29_279
*868 FILLER_29_281
*869 FILLER_29_293
*870 FILLER_29_3
*871 FILLER_29_305
*872 FILLER_29_317
*873 FILLER_29_329
*874 FILLER_29_335
*875 FILLER_29_337
*876 FILLER_29_39
*877 FILLER_29_51
*878 FILLER_29_55
*879 FILLER_29_57
*880 FILLER_29_69
*881 FILLER_29_81
*882 FILLER_29_93
*883 FILLER_2_109
*884 FILLER_2_121
*885 FILLER_2_133
*886 FILLER_2_139
*887 FILLER_2_141
*888 FILLER_2_15
*889 FILLER_2_153
*890 FILLER_2_165
*891 FILLER_2_177
*892 FILLER_2_189
*893 FILLER_2_195
*894 FILLER_2_197
*895 FILLER_2_209
*896 FILLER_2_221
*897 FILLER_2_233
*898 FILLER_2_245
*899 FILLER_2_251
*900 FILLER_2_253
*901 FILLER_2_265
*902 FILLER_2_27
*903 FILLER_2_277
*904 FILLER_2_289
*905 FILLER_2_29
*906 FILLER_2_3
*907 FILLER_2_301
*908 FILLER_2_307
*909 FILLER_2_309
*910 FILLER_2_321
*911 FILLER_2_333
*912 FILLER_2_337
*913 FILLER_2_41
*914 FILLER_2_53
*915 FILLER_2_65
*916 FILLER_2_77
*917 FILLER_2_83
*918 FILLER_2_85
*919 FILLER_2_97
*920 FILLER_30_109
*921 FILLER_30_121
*922 FILLER_30_133
*923 FILLER_30_139
*924 FILLER_30_141
*925 FILLER_30_15
*926 FILLER_30_153
*927 FILLER_30_165
*928 FILLER_30_177
*929 FILLER_30_189
*930 FILLER_30_195
*931 FILLER_30_197
*932 FILLER_30_209
*933 FILLER_30_221
*934 FILLER_30_233
*935 FILLER_30_245
*936 FILLER_30_251
*937 FILLER_30_253
*938 FILLER_30_265
*939 FILLER_30_27
*940 FILLER_30_277
*941 FILLER_30_289
*942 FILLER_30_29
*943 FILLER_30_3
*944 FILLER_30_301
*945 FILLER_30_307
*946 FILLER_30_309
*947 FILLER_30_321
*948 FILLER_30_333
*949 FILLER_30_337
*950 FILLER_30_41
*951 FILLER_30_53
*952 FILLER_30_65
*953 FILLER_30_77
*954 FILLER_30_83
*955 FILLER_30_85
*956 FILLER_30_97
*957 FILLER_31_105
*958 FILLER_31_111
*959 FILLER_31_113
*960 FILLER_31_125
*961 FILLER_31_137
*962 FILLER_31_149
*963 FILLER_31_15
*964 FILLER_31_161
*965 FILLER_31_167
*966 FILLER_31_169
*967 FILLER_31_181
*968 FILLER_31_193
*969 FILLER_31_205
*970 FILLER_31_217
*971 FILLER_31_223
*972 FILLER_31_225
*973 FILLER_31_237
*974 FILLER_31_249
*975 FILLER_31_261
*976 FILLER_31_27
*977 FILLER_31_273
*978 FILLER_31_279
*979 FILLER_31_281
*980 FILLER_31_293
*981 FILLER_31_3
*982 FILLER_31_305
*983 FILLER_31_317
*984 FILLER_31_329
*985 FILLER_31_335
*986 FILLER_31_337
*987 FILLER_31_39
*988 FILLER_31_51
*989 FILLER_31_55
*990 FILLER_31_57
*991 FILLER_31_69
*992 FILLER_31_81
*993 FILLER_31_93
*994 FILLER_32_109
*995 FILLER_32_121
*996 FILLER_32_133
*997 FILLER_32_139
*998 FILLER_32_141
*999 FILLER_32_15
*1000 FILLER_32_153
*1001 FILLER_32_165
*1002 FILLER_32_177
*1003 FILLER_32_189
*1004 FILLER_32_195
*1005 FILLER_32_197
*1006 FILLER_32_209
*1007 FILLER_32_221
*1008 FILLER_32_233
*1009 FILLER_32_245
*1010 FILLER_32_251
*1011 FILLER_32_253
*1012 FILLER_32_265
*1013 FILLER_32_27
*1014 FILLER_32_277
*1015 FILLER_32_289
*1016 FILLER_32_29
*1017 FILLER_32_3
*1018 FILLER_32_301
*1019 FILLER_32_307
*1020 FILLER_32_309
*1021 FILLER_32_321
*1022 FILLER_32_333
*1023 FILLER_32_337
*1024 FILLER_32_41
*1025 FILLER_32_53
*1026 FILLER_32_65
*1027 FILLER_32_77
*1028 FILLER_32_83
*1029 FILLER_32_85
*1030 FILLER_32_97
*1031 FILLER_33_105
*1032 FILLER_33_111
*1033 FILLER_33_113
*1034 FILLER_33_125
*1035 FILLER_33_137
*1036 FILLER_33_149
*1037 FILLER_33_15
*1038 FILLER_33_161
*1039 FILLER_33_167
*1040 FILLER_33_169
*1041 FILLER_33_181
*1042 FILLER_33_193
*1043 FILLER_33_205
*1044 FILLER_33_217
*1045 FILLER_33_223
*1046 FILLER_33_225
*1047 FILLER_33_235
*1048 FILLER_33_239
*1049 FILLER_33_256
*1050 FILLER_33_268
*1051 FILLER_33_27
*1052 FILLER_33_274
*1053 FILLER_33_278
*1054 FILLER_33_281
*1055 FILLER_33_299
*1056 FILLER_33_3
*1057 FILLER_33_311
*1058 FILLER_33_323
*1059 FILLER_33_335
*1060 FILLER_33_337
*1061 FILLER_33_39
*1062 FILLER_33_51
*1063 FILLER_33_55
*1064 FILLER_33_57
*1065 FILLER_33_69
*1066 FILLER_33_81
*1067 FILLER_33_93
*1068 FILLER_34_109
*1069 FILLER_34_120
*1070 FILLER_34_132
*1071 FILLER_34_141
*1072 FILLER_34_153
*1073 FILLER_34_161
*1074 FILLER_34_165
*1075 FILLER_34_177
*1076 FILLER_34_192
*1077 FILLER_34_197
*1078 FILLER_34_20
*1079 FILLER_34_209
*1080 FILLER_34_229
*1081 FILLER_34_236
*1082 FILLER_34_242
*1083 FILLER_34_249
*1084 FILLER_34_253
*1085 FILLER_34_275
*1086 FILLER_34_286
*1087 FILLER_34_29
*1088 FILLER_34_3
*1089 FILLER_34_306
*1090 FILLER_34_309
*1091 FILLER_34_318
*1092 FILLER_34_325
*1093 FILLER_34_337
*1094 FILLER_34_41
*1095 FILLER_34_53
*1096 FILLER_34_64
*1097 FILLER_34_76
*1098 FILLER_34_8
*1099 FILLER_34_85
*1100 FILLER_34_97
*1101 FILLER_35_103
*1102 FILLER_35_110
*1103 FILLER_35_113
*1104 FILLER_35_12
*1105 FILLER_35_124
*1106 FILLER_35_131
*1107 FILLER_35_138
*1108 FILLER_35_141
*1109 FILLER_35_145
*1110 FILLER_35_150
*1111 FILLER_35_158
*1112 FILLER_35_166
*1113 FILLER_35_169
*1114 FILLER_35_175
*1115 FILLER_35_183
*1116 FILLER_35_19
*1117 FILLER_35_194
*1118 FILLER_35_197
*1119 FILLER_35_209
*1120 FILLER_35_221
*1121 FILLER_35_225
*1122 FILLER_35_233
*1123 FILLER_35_238
*1124 FILLER_35_250
*1125 FILLER_35_253
*1126 FILLER_35_26
*1127 FILLER_35_264
*1128 FILLER_35_272
*1129 FILLER_35_278
*1130 FILLER_35_281
*1131 FILLER_35_29
*1132 FILLER_35_291
*1133 FILLER_35_298
*1134 FILLER_35_3
*1135 FILLER_35_305
*1136 FILLER_35_309
*1137 FILLER_35_314
*1138 FILLER_35_321
*1139 FILLER_35_328
*1140 FILLER_35_337
*1141 FILLER_35_40
*1142 FILLER_35_47
*1143 FILLER_35_54
*1144 FILLER_35_57
*1145 FILLER_35_68
*1146 FILLER_35_75
*1147 FILLER_35_82
*1148 FILLER_35_85
*1149 FILLER_35_96
*1150 FILLER_3_105
*1151 FILLER_3_111
*1152 FILLER_3_113
*1153 FILLER_3_125
*1154 FILLER_3_137
*1155 FILLER_3_149
*1156 FILLER_3_15
*1157 FILLER_3_161
*1158 FILLER_3_167
*1159 FILLER_3_169
*1160 FILLER_3_181
*1161 FILLER_3_193
*1162 FILLER_3_205
*1163 FILLER_3_217
*1164 FILLER_3_223
*1165 FILLER_3_225
*1166 FILLER_3_237
*1167 FILLER_3_249
*1168 FILLER_3_261
*1169 FILLER_3_27
*1170 FILLER_3_273
*1171 FILLER_3_279
*1172 FILLER_3_281
*1173 FILLER_3_293
*1174 FILLER_3_3
*1175 FILLER_3_305
*1176 FILLER_3_317
*1177 FILLER_3_329
*1178 FILLER_3_335
*1179 FILLER_3_337
*1180 FILLER_3_39
*1181 FILLER_3_51
*1182 FILLER_3_55
*1183 FILLER_3_57
*1184 FILLER_3_69
*1185 FILLER_3_81
*1186 FILLER_3_93
*1187 FILLER_4_109
*1188 FILLER_4_121
*1189 FILLER_4_133
*1190 FILLER_4_139
*1191 FILLER_4_141
*1192 FILLER_4_15
*1193 FILLER_4_153
*1194 FILLER_4_165
*1195 FILLER_4_177
*1196 FILLER_4_189
*1197 FILLER_4_195
*1198 FILLER_4_197
*1199 FILLER_4_209
*1200 FILLER_4_221
*1201 FILLER_4_233
*1202 FILLER_4_245
*1203 FILLER_4_251
*1204 FILLER_4_253
*1205 FILLER_4_265
*1206 FILLER_4_27
*1207 FILLER_4_277
*1208 FILLER_4_289
*1209 FILLER_4_29
*1210 FILLER_4_3
*1211 FILLER_4_301
*1212 FILLER_4_307
*1213 FILLER_4_309
*1214 FILLER_4_321
*1215 FILLER_4_333
*1216 FILLER_4_337
*1217 FILLER_4_41
*1218 FILLER_4_53
*1219 FILLER_4_65
*1220 FILLER_4_77
*1221 FILLER_4_83
*1222 FILLER_4_85
*1223 FILLER_4_97
*1224 FILLER_5_105
*1225 FILLER_5_111
*1226 FILLER_5_113
*1227 FILLER_5_125
*1228 FILLER_5_137
*1229 FILLER_5_149
*1230 FILLER_5_15
*1231 FILLER_5_161
*1232 FILLER_5_167
*1233 FILLER_5_169
*1234 FILLER_5_181
*1235 FILLER_5_193
*1236 FILLER_5_205
*1237 FILLER_5_217
*1238 FILLER_5_223
*1239 FILLER_5_225
*1240 FILLER_5_237
*1241 FILLER_5_249
*1242 FILLER_5_261
*1243 FILLER_5_27
*1244 FILLER_5_273
*1245 FILLER_5_279
*1246 FILLER_5_281
*1247 FILLER_5_293
*1248 FILLER_5_3
*1249 FILLER_5_305
*1250 FILLER_5_317
*1251 FILLER_5_329
*1252 FILLER_5_335
*1253 FILLER_5_337
*1254 FILLER_5_39
*1255 FILLER_5_51
*1256 FILLER_5_55
*1257 FILLER_5_57
*1258 FILLER_5_69
*1259 FILLER_5_81
*1260 FILLER_5_93
*1261 FILLER_6_109
*1262 FILLER_6_121
*1263 FILLER_6_133
*1264 FILLER_6_139
*1265 FILLER_6_141
*1266 FILLER_6_15
*1267 FILLER_6_153
*1268 FILLER_6_165
*1269 FILLER_6_177
*1270 FILLER_6_189
*1271 FILLER_6_195
*1272 FILLER_6_197
*1273 FILLER_6_209
*1274 FILLER_6_221
*1275 FILLER_6_233
*1276 FILLER_6_245
*1277 FILLER_6_251
*1278 FILLER_6_253
*1279 FILLER_6_265
*1280 FILLER_6_27
*1281 FILLER_6_277
*1282 FILLER_6_289
*1283 FILLER_6_29
*1284 FILLER_6_3
*1285 FILLER_6_301
*1286 FILLER_6_307
*1287 FILLER_6_309
*1288 FILLER_6_321
*1289 FILLER_6_333
*1290 FILLER_6_337
*1291 FILLER_6_41
*1292 FILLER_6_53
*1293 FILLER_6_65
*1294 FILLER_6_77
*1295 FILLER_6_83
*1296 FILLER_6_85
*1297 FILLER_6_97
*1298 FILLER_7_105
*1299 FILLER_7_111
*1300 FILLER_7_113
*1301 FILLER_7_125
*1302 FILLER_7_137
*1303 FILLER_7_149
*1304 FILLER_7_15
*1305 FILLER_7_161
*1306 FILLER_7_167
*1307 FILLER_7_169
*1308 FILLER_7_181
*1309 FILLER_7_193
*1310 FILLER_7_205
*1311 FILLER_7_217
*1312 FILLER_7_223
*1313 FILLER_7_225
*1314 FILLER_7_237
*1315 FILLER_7_249
*1316 FILLER_7_261
*1317 FILLER_7_27
*1318 FILLER_7_273
*1319 FILLER_7_279
*1320 FILLER_7_281
*1321 FILLER_7_293
*1322 FILLER_7_3
*1323 FILLER_7_305
*1324 FILLER_7_317
*1325 FILLER_7_329
*1326 FILLER_7_335
*1327 FILLER_7_337
*1328 FILLER_7_39
*1329 FILLER_7_51
*1330 FILLER_7_55
*1331 FILLER_7_57
*1332 FILLER_7_69
*1333 FILLER_7_81
*1334 FILLER_7_93
*1335 FILLER_8_109
*1336 FILLER_8_121
*1337 FILLER_8_133
*1338 FILLER_8_139
*1339 FILLER_8_141
*1340 FILLER_8_15
*1341 FILLER_8_153
*1342 FILLER_8_165
*1343 FILLER_8_177
*1344 FILLER_8_189
*1345 FILLER_8_195
*1346 FILLER_8_197
*1347 FILLER_8_209
*1348 FILLER_8_221
*1349 FILLER_8_233
*1350 FILLER_8_245
*1351 FILLER_8_251
*1352 FILLER_8_253
*1353 FILLER_8_265
*1354 FILLER_8_27
*1355 FILLER_8_277
*1356 FILLER_8_289
*1357 FILLER_8_29
*1358 FILLER_8_3
*1359 FILLER_8_301
*1360 FILLER_8_307
*1361 FILLER_8_309
*1362 FILLER_8_321
*1363 FILLER_8_333
*1364 FILLER_8_337
*1365 FILLER_8_41
*1366 FILLER_8_53
*1367 FILLER_8_65
*1368 FILLER_8_77
*1369 FILLER_8_83
*1370 FILLER_8_85
*1371 FILLER_8_97
*1372 FILLER_9_105
*1373 FILLER_9_111
*1374 FILLER_9_113
*1375 FILLER_9_125
*1376 FILLER_9_137
*1377 FILLER_9_149
*1378 FILLER_9_15
*1379 FILLER_9_161
*1380 FILLER_9_167
*1381 FILLER_9_169
*1382 FILLER_9_181
*1383 FILLER_9_193
*1384 FILLER_9_205
*1385 FILLER_9_217
*1386 FILLER_9_223
*1387 FILLER_9_225
*1388 FILLER_9_237
*1389 FILLER_9_249
*1390 FILLER_9_261
*1391 FILLER_9_27
*1392 FILLER_9_273
*1393 FILLER_9_279
*1394 FILLER_9_281
*1395 FILLER_9_293
*1396 FILLER_9_3
*1397 FILLER_9_305
*1398 FILLER_9_317
*1399 FILLER_9_329
*1400 FILLER_9_335
*1401 FILLER_9_337
*1402 FILLER_9_39
*1403 FILLER_9_51
*1404 FILLER_9_55
*1405 FILLER_9_57
*1406 FILLER_9_69
*1407 FILLER_9_81
*1408 FILLER_9_93
*1409 PHY_0
*1410 PHY_1
*1411 PHY_10
*1412 PHY_11
*1413 PHY_12
*1414 PHY_13
*1415 PHY_14
*1416 PHY_15
*1417 PHY_16
*1418 PHY_17
*1419 PHY_18
*1420 PHY_19
*1421 PHY_2
*1422 PHY_20
*1423 PHY_21
*1424 PHY_22
*1425 PHY_23
*1426 PHY_24
*1427 PHY_25
*1428 PHY_26
*1429 PHY_27
*1430 PHY_28
*1431 PHY_29
*1432 PHY_3
*1433 PHY_30
*1434 PHY_31
*1435 PHY_32
*1436 PHY_33
*1437 PHY_34
*1438 PHY_35
*1439 PHY_36
*1440 PHY_37
*1441 PHY_38
*1442 PHY_39
*1443 PHY_4
*1444 PHY_40
*1445 PHY_41
*1446 PHY_42
*1447 PHY_43
*1448 PHY_44
*1449 PHY_45
*1450 PHY_46
*1451 PHY_47
*1452 PHY_48
*1453 PHY_49
*1454 PHY_5
*1455 PHY_50
*1456 PHY_51
*1457 PHY_52
*1458 PHY_53
*1459 PHY_54
*1460 PHY_55
*1461 PHY_56
*1462 PHY_57
*1463 PHY_58
*1464 PHY_59
*1465 PHY_6
*1466 PHY_60
*1467 PHY_61
*1468 PHY_62
*1469 PHY_63
*1470 PHY_64
*1471 PHY_65
*1472 PHY_66
*1473 PHY_67
*1474 PHY_68
*1475 PHY_69
*1476 PHY_7
*1477 PHY_70
*1478 PHY_71
*1479 PHY_8
*1480 PHY_9
*1481 TAP_100
*1482 TAP_101
*1483 TAP_102
*1484 TAP_103
*1485 TAP_104
*1486 TAP_105
*1487 TAP_106
*1488 TAP_107
*1489 TAP_108
*1490 TAP_109
*1491 TAP_110
*1492 TAP_111
*1493 TAP_112
*1494 TAP_113
*1495 TAP_114
*1496 TAP_115
*1497 TAP_116
*1498 TAP_117
*1499 TAP_118
*1500 TAP_119
*1501 TAP_120
*1502 TAP_121
*1503 TAP_122
*1504 TAP_123
*1505 TAP_124
*1506 TAP_125
*1507 TAP_126
*1508 TAP_127
*1509 TAP_128
*1510 TAP_129
*1511 TAP_130
*1512 TAP_131
*1513 TAP_132
*1514 TAP_133
*1515 TAP_134
*1516 TAP_135
*1517 TAP_136
*1518 TAP_137
*1519 TAP_138
*1520 TAP_139
*1521 TAP_140
*1522 TAP_141
*1523 TAP_142
*1524 TAP_143
*1525 TAP_144
*1526 TAP_145
*1527 TAP_146
*1528 TAP_147
*1529 TAP_148
*1530 TAP_149
*1531 TAP_150
*1532 TAP_151
*1533 TAP_152
*1534 TAP_153
*1535 TAP_154
*1536 TAP_155
*1537 TAP_156
*1538 TAP_157
*1539 TAP_158
*1540 TAP_159
*1541 TAP_160
*1542 TAP_161
*1543 TAP_162
*1544 TAP_163
*1545 TAP_164
*1546 TAP_165
*1547 TAP_166
*1548 TAP_167
*1549 TAP_168
*1550 TAP_169
*1551 TAP_170
*1552 TAP_171
*1553 TAP_172
*1554 TAP_173
*1555 TAP_174
*1556 TAP_175
*1557 TAP_176
*1558 TAP_177
*1559 TAP_178
*1560 TAP_179
*1561 TAP_180
*1562 TAP_181
*1563 TAP_182
*1564 TAP_183
*1565 TAP_184
*1566 TAP_185
*1567 TAP_186
*1568 TAP_187
*1569 TAP_188
*1570 TAP_189
*1571 TAP_190
*1572 TAP_191
*1573 TAP_192
*1574 TAP_193
*1575 TAP_194
*1576 TAP_195
*1577 TAP_196
*1578 TAP_197
*1579 TAP_198
*1580 TAP_199
*1581 TAP_200
*1582 TAP_201
*1583 TAP_202
*1584 TAP_203
*1585 TAP_204
*1586 TAP_205
*1587 TAP_206
*1588 TAP_207
*1589 TAP_208
*1590 TAP_209
*1591 TAP_210
*1592 TAP_211
*1593 TAP_212
*1594 TAP_213
*1595 TAP_214
*1596 TAP_215
*1597 TAP_216
*1598 TAP_217
*1599 TAP_218
*1600 TAP_219
*1601 TAP_220
*1602 TAP_221
*1603 TAP_222
*1604 TAP_223
*1605 TAP_224
*1606 TAP_225
*1607 TAP_226
*1608 TAP_227
*1609 TAP_228
*1610 TAP_229
*1611 TAP_230
*1612 TAP_231
*1613 TAP_232
*1614 TAP_233
*1615 TAP_234
*1616 TAP_235
*1617 TAP_236
*1618 TAP_237
*1619 TAP_238
*1620 TAP_239
*1621 TAP_240
*1622 TAP_241
*1623 TAP_242
*1624 TAP_243
*1625 TAP_244
*1626 TAP_245
*1627 TAP_246
*1628 TAP_247
*1629 TAP_248
*1630 TAP_249
*1631 TAP_250
*1632 TAP_251
*1633 TAP_252
*1634 TAP_253
*1635 TAP_254
*1636 TAP_255
*1637 TAP_256
*1638 TAP_257
*1639 TAP_258
*1640 TAP_259
*1641 TAP_260
*1642 TAP_261
*1643 TAP_262
*1644 TAP_263
*1645 TAP_264
*1646 TAP_265
*1647 TAP_266
*1648 TAP_267
*1649 TAP_268
*1650 TAP_269
*1651 TAP_270
*1652 TAP_271
*1653 TAP_272
*1654 TAP_273
*1655 TAP_274
*1656 TAP_275
*1657 TAP_276
*1658 TAP_277
*1659 TAP_278
*1660 TAP_279
*1661 TAP_280
*1662 TAP_281
*1663 TAP_282
*1664 TAP_283
*1665 TAP_284
*1666 TAP_285
*1667 TAP_286
*1668 TAP_287
*1669 TAP_288
*1670 TAP_289
*1671 TAP_290
*1672 TAP_291
*1673 TAP_292
*1674 TAP_293
*1675 TAP_294
*1676 TAP_295
*1677 TAP_296
*1678 TAP_297
*1679 TAP_298
*1680 TAP_299
*1681 TAP_72
*1682 TAP_73
*1683 TAP_74
*1684 TAP_75
*1685 TAP_76
*1686 TAP_77
*1687 TAP_78
*1688 TAP_79
*1689 TAP_80
*1690 TAP_81
*1691 TAP_82