*SPEF "ieee 1481-1999"
*DESIGN "tt_um_wokwi_347144898258928211"
*DATE "11:11:11 Fri 11 11, 1111"
*VENDOR "OpenRCX"
*PROGRAM "Parallel Extraction"
*VERSION "1.0"
*DESIGN_FLOW "NAME_SCOPE LOCAL" "PIN_CAP NONE"
*DIVIDER /
*DELIMITER :
*BUS_DELIMITER []
*T_UNIT 1 NS
*C_UNIT 1 PF
*R_UNIT 1 OHM
*L_UNIT 1 HENRY

*NAME_MAP
*1 clk
*2 ena
*3 rst_n
*4 ui_in[0]
*5 ui_in[1]
*6 ui_in[2]
*7 ui_in[3]
*8 ui_in[4]
*9 ui_in[5]
*10 ui_in[6]
*11 ui_in[7]
*12 uio_in[0]
*13 uio_in[1]
*14 uio_in[2]
*15 uio_in[3]
*16 uio_in[4]
*17 uio_in[5]
*18 uio_in[6]
*19 uio_in[7]
*20 net3
*21 net4
*22 net5
*23 net6
*24 net7
*25 net8
*26 net9
*27 net10
*28 net11
*29 net12
*30 net13
*31 net14
*32 net15
*33 net16
*34 net17
*35 net18
*36 uo_out[0]
*37 uo_out[1]
*38 net19
*39 net20
*40 net21
*41 net22
*42 net23
*43 uo_out[7]
*46 _000_
*47 _001_
*48 _002_
*49 _003_
*50 _004_
*51 _005_
*52 _006_
*53 _007_
*54 _008_
*55 _009_
*56 _010_
*57 _011_
*58 _012_
*59 _013_
*60 _014_
*61 _015_
*62 _016_
*63 _017_
*64 _018_
*65 _019_
*66 _020_
*67 _021_
*68 _022_
*69 _023_
*70 _024_
*71 _025_
*72 _026_
*73 _027_
*74 _028_
*75 _029_
*76 _030_
*77 _031_
*78 _032_
*79 _033_
*80 _034_
*81 _035_
*82 _036_
*83 _037_
*84 _038_
*85 _039_
*86 _040_
*87 _041_
*88 _042_
*89 _043_
*90 _044_
*91 _045_
*92 _046_
*93 _047_
*94 _048_
*95 _049_
*96 _050_
*97 _051_
*98 _052_
*99 _053_
*100 _054_
*101 _055_
*102 _056_
*103 _057_
*104 _058_
*105 _059_
*106 _060_
*107 _061_
*108 _062_
*109 _063_
*110 _064_
*111 _065_
*112 _066_
*113 _067_
*114 _068_
*115 _069_
*116 _070_
*117 _071_
*118 _072_
*119 _073_
*120 _074_
*121 _075_
*122 _076_
*123 _077_
*124 _078_
*125 _079_
*126 _080_
*127 _081_
*128 _082_
*129 _083_
*130 _084_
*131 _085_
*132 _086_
*133 _087_
*134 _088_
*135 _089_
*136 _090_
*137 _091_
*138 _092_
*139 _093_
*140 _094_
*141 _095_
*142 _096_
*143 _097_
*144 _098_
*145 _099_
*146 _100_
*147 _101_
*148 _102_
*149 _103_
*150 _104_
*151 _105_
*152 _106_
*153 _107_
*154 _108_
*155 _109_
*156 _110_
*157 _111_
*158 _112_
*159 _113_
*160 _114_
*161 _115_
*162 _116_
*163 _117_
*164 _118_
*165 _119_
*166 _120_
*167 _121_
*168 _122_
*169 _123_
*170 _124_
*171 _125_
*172 _126_
*173 _127_
*174 _128_
*175 _129_
*176 _130_
*177 _131_
*178 _132_
*179 _133_
*180 _134_
*181 _135_
*182 _136_
*183 _137_
*184 _138_
*185 _139_
*186 _140_
*187 _141_
*188 _142_
*189 _143_
*190 _144_
*191 _145_
*192 _146_
*193 _147_
*194 _148_
*195 _149_
*196 _150_
*197 _151_
*198 _152_
*199 _153_
*200 _154_
*201 _155_
*202 _156_
*203 _157_
*204 _158_
*205 _159_
*206 _160_
*207 _161_
*208 _162_
*209 _163_
*210 _164_
*211 _165_
*212 _166_
*213 _167_
*214 _168_
*215 _169_
*216 _170_
*217 _171_
*218 _172_
*219 _173_
*220 _174_
*221 _175_
*222 _176_
*223 _177_
*224 _178_
*225 _179_
*226 _180_
*227 _181_
*228 _182_
*229 _183_
*230 _184_
*231 _185_
*232 _186_
*233 _187_
*234 _188_
*235 _189_
*236 _190_
*237 _191_
*238 _192_
*239 _193_
*240 _194_
*241 _195_
*242 _196_
*243 _197_
*244 _198_
*245 _199_
*246 _200_
*247 _201_
*248 _202_
*249 _203_
*250 _204_
*251 _205_
*252 _206_
*253 _207_
*254 _208_
*255 _209_
*256 _210_
*257 _211_
*258 _212_
*259 _213_
*260 _214_
*261 _215_
*262 _216_
*263 _217_
*264 _218_
*265 _219_
*266 _220_
*267 clknet_0_clk
*268 clknet_3_0__leaf_clk
*269 clknet_3_1__leaf_clk
*270 clknet_3_2__leaf_clk
*271 clknet_3_3__leaf_clk
*272 clknet_3_4__leaf_clk
*273 clknet_3_5__leaf_clk
*274 clknet_3_6__leaf_clk
*275 clknet_3_7__leaf_clk
*276 flop1\.q
*277 flop10\.q
*278 flop100\.q
*279 flop101\.q
*280 flop102\.q
*281 flop103\.q
*282 flop104\.q
*283 flop105\.q
*284 flop11\.q
*285 flop12\.q
*286 flop13\.q
*287 flop14\.q
*288 flop15\.q
*289 flop16\.q
*290 flop17\.q
*291 flop18\.q
*292 flop19\.q
*293 flop2\.q
*294 flop20\.q
*295 flop21\.q
*296 flop22\.q
*297 flop23\.q
*298 flop24\.q
*299 flop25\.q
*300 flop26\.q
*301 flop27\.q
*302 flop28\.q
*303 flop29\.q
*304 flop3\.q
*305 flop30\.q
*306 flop31\.q
*307 flop32\.q
*308 flop33\.q
*309 flop34\.q
*310 flop35\.q
*311 flop36\.q
*312 flop37\.q
*313 flop38\.q
*314 flop39\.q
*315 flop4\.q
*316 flop40\.q
*317 flop41\.q
*318 flop42\.q
*319 flop43\.q
*320 flop44\.q
*321 flop45\.q
*322 flop46\.q
*323 flop47\.q
*324 flop48\.q
*325 flop49\.q
*326 flop5\.q
*327 flop50\.q
*328 flop51\.q
*329 flop52\.q
*330 flop53\.q
*331 flop54\.q
*332 flop55\.q
*333 flop56\.q
*334 flop57\.q
*335 flop58\.q
*336 flop59\.q
*337 flop6\.q
*338 flop60\.q
*339 flop61\.q
*340 flop62\.q
*341 flop63\.q
*342 flop64\.q
*343 flop65\.q
*344 flop66\.q
*345 flop67\.q
*346 flop68\.q
*347 flop69\.q
*348 flop7\.q
*349 flop70\.q
*350 flop71\.q
*351 flop72\.q
*352 flop73\.q
*353 flop74\.q
*354 flop75\.q
*355 flop76\.q
*356 flop77\.q
*357 flop78\.q
*358 flop79\.q
*359 flop8\.q
*360 flop80\.q
*361 flop81\.q
*362 flop82\.q
*363 flop83\.q
*364 flop84\.q
*365 flop85\.q
*366 flop86\.q
*367 flop87\.q
*368 flop88\.q
*369 flop89\.q
*370 flop9\.q
*371 flop90\.q
*372 flop91\.q
*373 flop92\.q
*374 flop93\.q
*375 flop94\.q
*376 flop95\.q
*377 flop96\.q
*378 flop97\.q
*379 flop98\.q
*380 flop99\.q
*381 mux102\.b
*382 net1
*383 net2
*384 FILLER_0_109
*385 FILLER_0_113
*386 FILLER_0_125
*387 FILLER_0_137
*388 FILLER_0_141
*389 FILLER_0_15
*390 FILLER_0_153
*391 FILLER_0_165
*392 FILLER_0_169
*393 FILLER_0_181
*394 FILLER_0_193
*395 FILLER_0_197
*396 FILLER_0_209
*397 FILLER_0_221
*398 FILLER_0_225
*399 FILLER_0_237
*400 FILLER_0_249
*401 FILLER_0_253
*402 FILLER_0_265
*403 FILLER_0_27
*404 FILLER_0_277
*405 FILLER_0_281
*406 FILLER_0_29
*407 FILLER_0_293
*408 FILLER_0_3
*409 FILLER_0_305
*410 FILLER_0_309
*411 FILLER_0_321
*412 FILLER_0_333
*413 FILLER_0_337
*414 FILLER_0_41
*415 FILLER_0_53
*416 FILLER_0_57
*417 FILLER_0_69
*418 FILLER_0_81
*419 FILLER_0_85
*420 FILLER_0_97
*421 FILLER_10_109
*422 FILLER_10_121
*423 FILLER_10_133
*424 FILLER_10_139
*425 FILLER_10_141
*426 FILLER_10_15
*427 FILLER_10_153
*428 FILLER_10_165
*429 FILLER_10_177
*430 FILLER_10_189
*431 FILLER_10_195
*432 FILLER_10_197
*433 FILLER_10_209
*434 FILLER_10_221
*435 FILLER_10_233
*436 FILLER_10_245
*437 FILLER_10_251
*438 FILLER_10_253
*439 FILLER_10_265
*440 FILLER_10_27
*441 FILLER_10_277
*442 FILLER_10_289
*443 FILLER_10_29
*444 FILLER_10_3
*445 FILLER_10_301
*446 FILLER_10_307
*447 FILLER_10_309
*448 FILLER_10_321
*449 FILLER_10_333
*450 FILLER_10_337
*451 FILLER_10_41
*452 FILLER_10_53
*453 FILLER_10_65
*454 FILLER_10_77
*455 FILLER_10_83
*456 FILLER_10_85
*457 FILLER_10_97
*458 FILLER_11_105
*459 FILLER_11_111
*460 FILLER_11_113
*461 FILLER_11_125
*462 FILLER_11_132
*463 FILLER_11_144
*464 FILLER_11_15
*465 FILLER_11_156
*466 FILLER_11_169
*467 FILLER_11_181
*468 FILLER_11_193
*469 FILLER_11_205
*470 FILLER_11_217
*471 FILLER_11_223
*472 FILLER_11_225
*473 FILLER_11_237
*474 FILLER_11_249
*475 FILLER_11_261
*476 FILLER_11_27
*477 FILLER_11_273
*478 FILLER_11_279
*479 FILLER_11_281
*480 FILLER_11_293
*481 FILLER_11_3
*482 FILLER_11_305
*483 FILLER_11_317
*484 FILLER_11_329
*485 FILLER_11_335
*486 FILLER_11_337
*487 FILLER_11_39
*488 FILLER_11_51
*489 FILLER_11_55
*490 FILLER_11_57
*491 FILLER_11_69
*492 FILLER_11_81
*493 FILLER_11_93
*494 FILLER_12_109
*495 FILLER_12_117
*496 FILLER_12_125
*497 FILLER_12_133
*498 FILLER_12_138
*499 FILLER_12_141
*500 FILLER_12_149
*501 FILLER_12_15
*502 FILLER_12_153
*503 FILLER_12_165
*504 FILLER_12_172
*505 FILLER_12_184
*506 FILLER_12_190
*507 FILLER_12_197
*508 FILLER_12_209
*509 FILLER_12_217
*510 FILLER_12_222
*511 FILLER_12_234
*512 FILLER_12_242
*513 FILLER_12_248
*514 FILLER_12_253
*515 FILLER_12_261
*516 FILLER_12_267
*517 FILLER_12_27
*518 FILLER_12_278
*519 FILLER_12_29
*520 FILLER_12_290
*521 FILLER_12_3
*522 FILLER_12_302
*523 FILLER_12_309
*524 FILLER_12_321
*525 FILLER_12_333
*526 FILLER_12_337
*527 FILLER_12_41
*528 FILLER_12_53
*529 FILLER_12_65
*530 FILLER_12_77
*531 FILLER_12_83
*532 FILLER_12_85
*533 FILLER_12_97
*534 FILLER_13_105
*535 FILLER_13_111
*536 FILLER_13_113
*537 FILLER_13_131
*538 FILLER_13_142
*539 FILLER_13_15
*540 FILLER_13_162
*541 FILLER_13_169
*542 FILLER_13_187
*543 FILLER_13_201
*544 FILLER_13_208
*545 FILLER_13_212
*546 FILLER_13_219
*547 FILLER_13_223
*548 FILLER_13_225
*549 FILLER_13_243
*550 FILLER_13_250
*551 FILLER_13_264
*552 FILLER_13_27
*553 FILLER_13_274
*554 FILLER_13_281
*555 FILLER_13_286
*556 FILLER_13_293
*557 FILLER_13_3
*558 FILLER_13_305
*559 FILLER_13_317
*560 FILLER_13_329
*561 FILLER_13_335
*562 FILLER_13_337
*563 FILLER_13_39
*564 FILLER_13_51
*565 FILLER_13_55
*566 FILLER_13_57
*567 FILLER_13_69
*568 FILLER_13_81
*569 FILLER_13_93
*570 FILLER_14_103
*571 FILLER_14_107
*572 FILLER_14_117
*573 FILLER_14_137
*574 FILLER_14_141
*575 FILLER_14_145
*576 FILLER_14_15
*577 FILLER_14_152
*578 FILLER_14_156
*579 FILLER_14_173
*580 FILLER_14_177
*581 FILLER_14_194
*582 FILLER_14_197
*583 FILLER_14_215
*584 FILLER_14_219
*585 FILLER_14_236
*586 FILLER_14_246
*587 FILLER_14_253
*588 FILLER_14_27
*589 FILLER_14_273
*590 FILLER_14_277
*591 FILLER_14_29
*592 FILLER_14_294
*593 FILLER_14_3
*594 FILLER_14_306
*595 FILLER_14_309
*596 FILLER_14_324
*597 FILLER_14_336
*598 FILLER_14_41
*599 FILLER_14_53
*600 FILLER_14_65
*601 FILLER_14_77
*602 FILLER_14_83
*603 FILLER_14_85
*604 FILLER_14_97
*605 FILLER_15_105
*606 FILLER_15_111
*607 FILLER_15_113
*608 FILLER_15_131
*609 FILLER_15_15
*610 FILLER_15_159
*611 FILLER_15_167
*612 FILLER_15_169
*613 FILLER_15_177
*614 FILLER_15_185
*615 FILLER_15_192
*616 FILLER_15_198
*617 FILLER_15_205
*618 FILLER_15_212
*619 FILLER_15_219
*620 FILLER_15_223
*621 FILLER_15_225
*622 FILLER_15_233
*623 FILLER_15_253
*624 FILLER_15_27
*625 FILLER_15_273
*626 FILLER_15_279
*627 FILLER_15_281
*628 FILLER_15_299
*629 FILLER_15_3
*630 FILLER_15_319
*631 FILLER_15_329
*632 FILLER_15_335
*633 FILLER_15_337
*634 FILLER_15_39
*635 FILLER_15_51
*636 FILLER_15_55
*637 FILLER_15_57
*638 FILLER_15_69
*639 FILLER_15_81
*640 FILLER_15_93
*641 FILLER_16_109
*642 FILLER_16_113
*643 FILLER_16_117
*644 FILLER_16_137
*645 FILLER_16_141
*646 FILLER_16_149
*647 FILLER_16_15
*648 FILLER_16_157
*649 FILLER_16_178
*650 FILLER_16_185
*651 FILLER_16_192
*652 FILLER_16_197
*653 FILLER_16_215
*654 FILLER_16_222
*655 FILLER_16_226
*656 FILLER_16_243
*657 FILLER_16_251
*658 FILLER_16_253
*659 FILLER_16_267
*660 FILLER_16_27
*661 FILLER_16_29
*662 FILLER_16_291
*663 FILLER_16_3
*664 FILLER_16_300
*665 FILLER_16_309
*666 FILLER_16_331
*667 FILLER_16_337
*668 FILLER_16_41
*669 FILLER_16_53
*670 FILLER_16_65
*671 FILLER_16_77
*672 FILLER_16_83
*673 FILLER_16_85
*674 FILLER_16_97
*675 FILLER_17_105
*676 FILLER_17_110
*677 FILLER_17_113
*678 FILLER_17_131
*679 FILLER_17_141
*680 FILLER_17_149
*681 FILLER_17_15
*682 FILLER_17_156
*683 FILLER_17_166
*684 FILLER_17_169
*685 FILLER_17_175
*686 FILLER_17_182
*687 FILLER_17_206
*688 FILLER_17_214
*689 FILLER_17_222
*690 FILLER_17_225
*691 FILLER_17_236
*692 FILLER_17_262
*693 FILLER_17_27
*694 FILLER_17_272
*695 FILLER_17_281
*696 FILLER_17_286
*697 FILLER_17_296
*698 FILLER_17_3
*699 FILLER_17_306
*700 FILLER_17_314
*701 FILLER_17_332
*702 FILLER_17_337
*703 FILLER_17_39
*704 FILLER_17_51
*705 FILLER_17_55
*706 FILLER_17_57
*707 FILLER_17_69
*708 FILLER_17_81
*709 FILLER_17_93
*710 FILLER_18_109
*711 FILLER_18_128
*712 FILLER_18_136
*713 FILLER_18_141
*714 FILLER_18_147
*715 FILLER_18_15
*716 FILLER_18_164
*717 FILLER_18_168
*718 FILLER_18_185
*719 FILLER_18_192
*720 FILLER_18_197
*721 FILLER_18_215
*722 FILLER_18_235
*723 FILLER_18_239
*724 FILLER_18_245
*725 FILLER_18_251
*726 FILLER_18_253
*727 FILLER_18_27
*728 FILLER_18_271
*729 FILLER_18_278
*730 FILLER_18_286
*731 FILLER_18_29
*732 FILLER_18_3
*733 FILLER_18_304
*734 FILLER_18_309
*735 FILLER_18_327
*736 FILLER_18_334
*737 FILLER_18_41
*738 FILLER_18_53
*739 FILLER_18_65
*740 FILLER_18_77
*741 FILLER_18_83
*742 FILLER_18_85
*743 FILLER_18_97
*744 FILLER_19_105
*745 FILLER_19_111
*746 FILLER_19_113
*747 FILLER_19_119
*748 FILLER_19_129
*749 FILLER_19_139
*750 FILLER_19_146
*751 FILLER_19_15
*752 FILLER_19_166
*753 FILLER_19_169
*754 FILLER_19_177
*755 FILLER_19_186
*756 FILLER_19_198
*757 FILLER_19_205
*758 FILLER_19_214
*759 FILLER_19_222
*760 FILLER_19_225
*761 FILLER_19_233
*762 FILLER_19_245
*763 FILLER_19_250
*764 FILLER_19_254
*765 FILLER_19_27
*766 FILLER_19_271
*767 FILLER_19_279
*768 FILLER_19_281
*769 FILLER_19_286
*770 FILLER_19_293
*771 FILLER_19_3
*772 FILLER_19_300
*773 FILLER_19_312
*774 FILLER_19_330
*775 FILLER_19_337
*776 FILLER_19_39
*777 FILLER_19_51
*778 FILLER_19_55
*779 FILLER_19_57
*780 FILLER_19_69
*781 FILLER_19_81
*782 FILLER_19_93
*783 FILLER_1_105
*784 FILLER_1_111
*785 FILLER_1_113
*786 FILLER_1_125
*787 FILLER_1_137
*788 FILLER_1_149
*789 FILLER_1_15
*790 FILLER_1_161
*791 FILLER_1_167
*792 FILLER_1_169
*793 FILLER_1_181
*794 FILLER_1_193
*795 FILLER_1_205
*796 FILLER_1_217
*797 FILLER_1_223
*798 FILLER_1_225
*799 FILLER_1_237
*800 FILLER_1_249
*801 FILLER_1_261
*802 FILLER_1_27
*803 FILLER_1_273
*804 FILLER_1_279
*805 FILLER_1_281
*806 FILLER_1_293
*807 FILLER_1_3
*808 FILLER_1_305
*809 FILLER_1_317
*810 FILLER_1_329
*811 FILLER_1_335
*812 FILLER_1_337
*813 FILLER_1_39
*814 FILLER_1_51
*815 FILLER_1_55
*816 FILLER_1_57
*817 FILLER_1_69
*818 FILLER_1_81
*819 FILLER_1_93
*820 FILLER_20_109
*821 FILLER_20_115
*822 FILLER_20_132
*823 FILLER_20_141
*824 FILLER_20_145
*825 FILLER_20_149
*826 FILLER_20_15
*827 FILLER_20_156
*828 FILLER_20_176
*829 FILLER_20_184
*830 FILLER_20_189
*831 FILLER_20_195
*832 FILLER_20_197
*833 FILLER_20_205
*834 FILLER_20_213
*835 FILLER_20_231
*836 FILLER_20_241
*837 FILLER_20_249
*838 FILLER_20_253
*839 FILLER_20_266
*840 FILLER_20_27
*841 FILLER_20_286
*842 FILLER_20_29
*843 FILLER_20_296
*844 FILLER_20_3
*845 FILLER_20_302
*846 FILLER_20_306
*847 FILLER_20_309
*848 FILLER_20_317
*849 FILLER_20_327
*850 FILLER_20_334
*851 FILLER_20_41
*852 FILLER_20_53
*853 FILLER_20_65
*854 FILLER_20_77
*855 FILLER_20_83
*856 FILLER_20_85
*857 FILLER_20_97
*858 FILLER_21_105
*859 FILLER_21_110
*860 FILLER_21_113
*861 FILLER_21_132
*862 FILLER_21_140
*863 FILLER_21_15
*864 FILLER_21_152
*865 FILLER_21_156
*866 FILLER_21_163
*867 FILLER_21_167
*868 FILLER_21_169
*869 FILLER_21_173
*870 FILLER_21_177
*871 FILLER_21_187
*872 FILLER_21_201
*873 FILLER_21_209
*874 FILLER_21_220
*875 FILLER_21_225
*876 FILLER_21_230
*877 FILLER_21_234
*878 FILLER_21_251
*879 FILLER_21_258
*880 FILLER_21_27
*881 FILLER_21_278
*882 FILLER_21_281
*883 FILLER_21_287
*884 FILLER_21_291
*885 FILLER_21_3
*886 FILLER_21_311
*887 FILLER_21_331
*888 FILLER_21_335
*889 FILLER_21_337
*890 FILLER_21_39
*891 FILLER_21_51
*892 FILLER_21_55
*893 FILLER_21_57
*894 FILLER_21_69
*895 FILLER_21_81
*896 FILLER_21_93
*897 FILLER_22_106
*898 FILLER_22_113
*899 FILLER_22_123
*900 FILLER_22_133
*901 FILLER_22_139
*902 FILLER_22_141
*903 FILLER_22_149
*904 FILLER_22_15
*905 FILLER_22_161
*906 FILLER_22_173
*907 FILLER_22_190
*908 FILLER_22_197
*909 FILLER_22_201
*910 FILLER_22_218
*911 FILLER_22_242
*912 FILLER_22_249
*913 FILLER_22_253
*914 FILLER_22_261
*915 FILLER_22_27
*916 FILLER_22_272
*917 FILLER_22_279
*918 FILLER_22_286
*919 FILLER_22_29
*920 FILLER_22_298
*921 FILLER_22_3
*922 FILLER_22_306
*923 FILLER_22_309
*924 FILLER_22_313
*925 FILLER_22_330
*926 FILLER_22_41
*927 FILLER_22_53
*928 FILLER_22_65
*929 FILLER_22_77
*930 FILLER_22_83
*931 FILLER_22_85
*932 FILLER_22_97
*933 FILLER_23_105
*934 FILLER_23_111
*935 FILLER_23_113
*936 FILLER_23_131
*937 FILLER_23_15
*938 FILLER_23_155
*939 FILLER_23_162
*940 FILLER_23_169
*941 FILLER_23_174
*942 FILLER_23_194
*943 FILLER_23_214
*944 FILLER_23_221
*945 FILLER_23_225
*946 FILLER_23_243
*947 FILLER_23_251
*948 FILLER_23_268
*949 FILLER_23_27
*950 FILLER_23_272
*951 FILLER_23_278
*952 FILLER_23_281
*953 FILLER_23_299
*954 FILLER_23_3
*955 FILLER_23_305
*956 FILLER_23_309
*957 FILLER_23_315
*958 FILLER_23_321
*959 FILLER_23_328
*960 FILLER_23_337
*961 FILLER_23_39
*962 FILLER_23_51
*963 FILLER_23_55
*964 FILLER_23_57
*965 FILLER_23_69
*966 FILLER_23_81
*967 FILLER_23_93
*968 FILLER_24_109
*969 FILLER_24_113
*970 FILLER_24_130
*971 FILLER_24_137
*972 FILLER_24_141
*973 FILLER_24_15
*974 FILLER_24_153
*975 FILLER_24_172
*976 FILLER_24_192
*977 FILLER_24_197
*978 FILLER_24_211
*979 FILLER_24_220
*980 FILLER_24_244
*981 FILLER_24_253
*982 FILLER_24_261
*983 FILLER_24_268
*984 FILLER_24_27
*985 FILLER_24_288
*986 FILLER_24_29
*987 FILLER_24_3
*988 FILLER_24_301
*989 FILLER_24_307
*990 FILLER_24_309
*991 FILLER_24_313
*992 FILLER_24_330
*993 FILLER_24_41
*994 FILLER_24_53
*995 FILLER_24_65
*996 FILLER_24_77
*997 FILLER_24_83
*998 FILLER_24_85
*999 FILLER_24_97
*1000 FILLER_25_105
*1001 FILLER_25_111
*1002 FILLER_25_113
*1003 FILLER_25_131
*1004 FILLER_25_141
*1005 FILLER_25_147
*1006 FILLER_25_15
*1007 FILLER_25_151
*1008 FILLER_25_160
*1009 FILLER_25_169
*1010 FILLER_25_187
*1011 FILLER_25_196
*1012 FILLER_25_204
*1013 FILLER_25_221
*1014 FILLER_25_225
*1015 FILLER_25_243
*1016 FILLER_25_27
*1017 FILLER_25_271
*1018 FILLER_25_278
*1019 FILLER_25_281
*1020 FILLER_25_289
*1021 FILLER_25_293
*1022 FILLER_25_3
*1023 FILLER_25_310
*1024 FILLER_25_330
*1025 FILLER_25_337
*1026 FILLER_25_39
*1027 FILLER_25_51
*1028 FILLER_25_55
*1029 FILLER_25_57
*1030 FILLER_25_69
*1031 FILLER_25_81
*1032 FILLER_25_93
*1033 FILLER_26_109
*1034 FILLER_26_118
*1035 FILLER_26_128
*1036 FILLER_26_137
*1037 FILLER_26_141
*1038 FILLER_26_148
*1039 FILLER_26_15
*1040 FILLER_26_156
*1041 FILLER_26_178
*1042 FILLER_26_188
*1043 FILLER_26_197
*1044 FILLER_26_215
*1045 FILLER_26_227
*1046 FILLER_26_234
*1047 FILLER_26_241
*1048 FILLER_26_250
*1049 FILLER_26_253
*1050 FILLER_26_263
*1051 FILLER_26_27
*1052 FILLER_26_29
*1053 FILLER_26_291
*1054 FILLER_26_299
*1055 FILLER_26_3
*1056 FILLER_26_306
*1057 FILLER_26_309
*1058 FILLER_26_318
*1059 FILLER_26_328
*1060 FILLER_26_335
*1061 FILLER_26_41
*1062 FILLER_26_53
*1063 FILLER_26_65
*1064 FILLER_26_77
*1065 FILLER_26_83
*1066 FILLER_26_85
*1067 FILLER_26_97
*1068 FILLER_27_105
*1069 FILLER_27_110
*1070 FILLER_27_113
*1071 FILLER_27_118
*1072 FILLER_27_138
*1073 FILLER_27_15
*1074 FILLER_27_158
*1075 FILLER_27_162
*1076 FILLER_27_166
*1077 FILLER_27_169
*1078 FILLER_27_182
*1079 FILLER_27_206
*1080 FILLER_27_213
*1081 FILLER_27_217
*1082 FILLER_27_221
*1083 FILLER_27_225
*1084 FILLER_27_230
*1085 FILLER_27_262
*1086 FILLER_27_27
*1087 FILLER_27_271
*1088 FILLER_27_278
*1089 FILLER_27_281
*1090 FILLER_27_299
*1091 FILLER_27_3
*1092 FILLER_27_306
*1093 FILLER_27_314
*1094 FILLER_27_331
*1095 FILLER_27_335
*1096 FILLER_27_337
*1097 FILLER_27_39
*1098 FILLER_27_51
*1099 FILLER_27_55
*1100 FILLER_27_57
*1101 FILLER_27_69
*1102 FILLER_27_81
*1103 FILLER_27_93
*1104 FILLER_28_112
*1105 FILLER_28_132
*1106 FILLER_28_141
*1107 FILLER_28_148
*1108 FILLER_28_15
*1109 FILLER_28_156
*1110 FILLER_28_160
*1111 FILLER_28_164
*1112 FILLER_28_171
*1113 FILLER_28_182
*1114 FILLER_28_186
*1115 FILLER_28_193
*1116 FILLER_28_197
*1117 FILLER_28_204
*1118 FILLER_28_208
*1119 FILLER_28_215
*1120 FILLER_28_222
*1121 FILLER_28_234
*1122 FILLER_28_246
*1123 FILLER_28_250
*1124 FILLER_28_253
*1125 FILLER_28_261
*1126 FILLER_28_269
*1127 FILLER_28_27
*1128 FILLER_28_273
*1129 FILLER_28_280
*1130 FILLER_28_29
*1131 FILLER_28_291
*1132 FILLER_28_299
*1133 FILLER_28_3
*1134 FILLER_28_306
*1135 FILLER_28_309
*1136 FILLER_28_327
*1137 FILLER_28_334
*1138 FILLER_28_41
*1139 FILLER_28_53
*1140 FILLER_28_65
*1141 FILLER_28_77
*1142 FILLER_28_83
*1143 FILLER_28_85
*1144 FILLER_28_97
*1145 FILLER_29_105
*1146 FILLER_29_111
*1147 FILLER_29_113
*1148 FILLER_29_117
*1149 FILLER_29_134
*1150 FILLER_29_145
*1151 FILLER_29_149
*1152 FILLER_29_15
*1153 FILLER_29_166
*1154 FILLER_29_169
*1155 FILLER_29_187
*1156 FILLER_29_191
*1157 FILLER_29_208
*1158 FILLER_29_217
*1159 FILLER_29_223
*1160 FILLER_29_225
*1161 FILLER_29_237
*1162 FILLER_29_241
*1163 FILLER_29_258
*1164 FILLER_29_27
*1165 FILLER_29_278
*1166 FILLER_29_281
*1167 FILLER_29_285
*1168 FILLER_29_3
*1169 FILLER_29_302
*1170 FILLER_29_322
*1171 FILLER_29_332
*1172 FILLER_29_337
*1173 FILLER_29_39
*1174 FILLER_29_51
*1175 FILLER_29_55
*1176 FILLER_29_57
*1177 FILLER_29_69
*1178 FILLER_29_81
*1179 FILLER_29_93
*1180 FILLER_2_109
*1181 FILLER_2_121
*1182 FILLER_2_133
*1183 FILLER_2_139
*1184 FILLER_2_141
*1185 FILLER_2_15
*1186 FILLER_2_153
*1187 FILLER_2_165
*1188 FILLER_2_177
*1189 FILLER_2_189
*1190 FILLER_2_195
*1191 FILLER_2_197
*1192 FILLER_2_209
*1193 FILLER_2_221
*1194 FILLER_2_233
*1195 FILLER_2_245
*1196 FILLER_2_251
*1197 FILLER_2_253
*1198 FILLER_2_265
*1199 FILLER_2_27
*1200 FILLER_2_277
*1201 FILLER_2_289
*1202 FILLER_2_29
*1203 FILLER_2_3
*1204 FILLER_2_301
*1205 FILLER_2_307
*1206 FILLER_2_309
*1207 FILLER_2_321
*1208 FILLER_2_333
*1209 FILLER_2_337
*1210 FILLER_2_41
*1211 FILLER_2_53
*1212 FILLER_2_65
*1213 FILLER_2_77
*1214 FILLER_2_83
*1215 FILLER_2_85
*1216 FILLER_2_97
*1217 FILLER_30_109
*1218 FILLER_30_117
*1219 FILLER_30_135
*1220 FILLER_30_139
*1221 FILLER_30_141
*1222 FILLER_30_149
*1223 FILLER_30_15
*1224 FILLER_30_161
*1225 FILLER_30_170
*1226 FILLER_30_190
*1227 FILLER_30_197
*1228 FILLER_30_203
*1229 FILLER_30_220
*1230 FILLER_30_227
*1231 FILLER_30_249
*1232 FILLER_30_253
*1233 FILLER_30_261
*1234 FILLER_30_269
*1235 FILLER_30_27
*1236 FILLER_30_286
*1237 FILLER_30_29
*1238 FILLER_30_296
*1239 FILLER_30_3
*1240 FILLER_30_303
*1241 FILLER_30_307
*1242 FILLER_30_309
*1243 FILLER_30_328
*1244 FILLER_30_335
*1245 FILLER_30_41
*1246 FILLER_30_53
*1247 FILLER_30_65
*1248 FILLER_30_77
*1249 FILLER_30_83
*1250 FILLER_30_85
*1251 FILLER_30_97
*1252 FILLER_31_105
*1253 FILLER_31_111
*1254 FILLER_31_113
*1255 FILLER_31_117
*1256 FILLER_31_121
*1257 FILLER_31_141
*1258 FILLER_31_15
*1259 FILLER_31_151
*1260 FILLER_31_163
*1261 FILLER_31_167
*1262 FILLER_31_169
*1263 FILLER_31_180
*1264 FILLER_31_190
*1265 FILLER_31_198
*1266 FILLER_31_206
*1267 FILLER_31_219
*1268 FILLER_31_223
*1269 FILLER_31_225
*1270 FILLER_31_237
*1271 FILLER_31_257
*1272 FILLER_31_27
*1273 FILLER_31_277
*1274 FILLER_31_281
*1275 FILLER_31_286
*1276 FILLER_31_298
*1277 FILLER_31_3
*1278 FILLER_31_304
*1279 FILLER_31_313
*1280 FILLER_31_327
*1281 FILLER_31_334
*1282 FILLER_31_337
*1283 FILLER_31_39
*1284 FILLER_31_51
*1285 FILLER_31_55
*1286 FILLER_31_57
*1287 FILLER_31_69
*1288 FILLER_31_81
*1289 FILLER_31_93
*1290 FILLER_32_109
*1291 FILLER_32_118
*1292 FILLER_32_138
*1293 FILLER_32_141
*1294 FILLER_32_149
*1295 FILLER_32_15
*1296 FILLER_32_156
*1297 FILLER_32_168
*1298 FILLER_32_176
*1299 FILLER_32_183
*1300 FILLER_32_193
*1301 FILLER_32_197
*1302 FILLER_32_205
*1303 FILLER_32_213
*1304 FILLER_32_217
*1305 FILLER_32_237
*1306 FILLER_32_247
*1307 FILLER_32_251
*1308 FILLER_32_253
*1309 FILLER_32_259
*1310 FILLER_32_269
*1311 FILLER_32_27
*1312 FILLER_32_276
*1313 FILLER_32_283
*1314 FILLER_32_29
*1315 FILLER_32_290
*1316 FILLER_32_294
*1317 FILLER_32_3
*1318 FILLER_32_301
*1319 FILLER_32_307
*1320 FILLER_32_309
*1321 FILLER_32_315
*1322 FILLER_32_332
*1323 FILLER_32_41
*1324 FILLER_32_53
*1325 FILLER_32_65
*1326 FILLER_32_77
*1327 FILLER_32_83
*1328 FILLER_32_85
*1329 FILLER_32_97
*1330 FILLER_33_105
*1331 FILLER_33_111
*1332 FILLER_33_113
*1333 FILLER_33_121
*1334 FILLER_33_125
*1335 FILLER_33_145
*1336 FILLER_33_15
*1337 FILLER_33_155
*1338 FILLER_33_166
*1339 FILLER_33_169
*1340 FILLER_33_173
*1341 FILLER_33_190
*1342 FILLER_33_210
*1343 FILLER_33_220
*1344 FILLER_33_225
*1345 FILLER_33_230
*1346 FILLER_33_234
*1347 FILLER_33_241
*1348 FILLER_33_261
*1349 FILLER_33_27
*1350 FILLER_33_271
*1351 FILLER_33_278
*1352 FILLER_33_281
*1353 FILLER_33_286
*1354 FILLER_33_290
*1355 FILLER_33_3
*1356 FILLER_33_307
*1357 FILLER_33_327
*1358 FILLER_33_334
*1359 FILLER_33_337
*1360 FILLER_33_39
*1361 FILLER_33_51
*1362 FILLER_33_55
*1363 FILLER_33_57
*1364 FILLER_33_69
*1365 FILLER_33_81
*1366 FILLER_33_93
*1367 FILLER_34_109
*1368 FILLER_34_120
*1369 FILLER_34_124
*1370 FILLER_34_128
*1371 FILLER_34_138
*1372 FILLER_34_141
*1373 FILLER_34_159
*1374 FILLER_34_166
*1375 FILLER_34_186
*1376 FILLER_34_194
*1377 FILLER_34_197
*1378 FILLER_34_20
*1379 FILLER_34_217
*1380 FILLER_34_237
*1381 FILLER_34_243
*1382 FILLER_34_250
*1383 FILLER_34_253
*1384 FILLER_34_259
*1385 FILLER_34_276
*1386 FILLER_34_286
*1387 FILLER_34_29
*1388 FILLER_34_292
*1389 FILLER_34_296
*1390 FILLER_34_3
*1391 FILLER_34_306
*1392 FILLER_34_309
*1393 FILLER_34_327
*1394 FILLER_34_334
*1395 FILLER_34_41
*1396 FILLER_34_53
*1397 FILLER_34_64
*1398 FILLER_34_76
*1399 FILLER_34_8
*1400 FILLER_34_85
*1401 FILLER_34_97
*1402 FILLER_35_103
*1403 FILLER_35_110
*1404 FILLER_35_113
*1405 FILLER_35_119
*1406 FILLER_35_12
*1407 FILLER_35_123
*1408 FILLER_35_130
*1409 FILLER_35_138
*1410 FILLER_35_141
*1411 FILLER_35_149
*1412 FILLER_35_155
*1413 FILLER_35_159
*1414 FILLER_35_166
*1415 FILLER_35_169
*1416 FILLER_35_174
*1417 FILLER_35_181
*1418 FILLER_35_185
*1419 FILLER_35_19
*1420 FILLER_35_190
*1421 FILLER_35_197
*1422 FILLER_35_202
*1423 FILLER_35_210
*1424 FILLER_35_215
*1425 FILLER_35_223
*1426 FILLER_35_225
*1427 FILLER_35_237
*1428 FILLER_35_242
*1429 FILLER_35_250
*1430 FILLER_35_253
*1431 FILLER_35_258
*1432 FILLER_35_26
*1433 FILLER_35_278
*1434 FILLER_35_281
*1435 FILLER_35_287
*1436 FILLER_35_29
*1437 FILLER_35_299
*1438 FILLER_35_3
*1439 FILLER_35_304
*1440 FILLER_35_309
*1441 FILLER_35_317
*1442 FILLER_35_327
*1443 FILLER_35_335
*1444 FILLER_35_337
*1445 FILLER_35_40
*1446 FILLER_35_47
*1447 FILLER_35_54
*1448 FILLER_35_57
*1449 FILLER_35_68
*1450 FILLER_35_75
*1451 FILLER_35_82
*1452 FILLER_35_85
*1453 FILLER_35_96
*1454 FILLER_3_105
*1455 FILLER_3_111
*1456 FILLER_3_113
*1457 FILLER_3_125
*1458 FILLER_3_137
*1459 FILLER_3_149
*1460 FILLER_3_15
*1461 FILLER_3_161
*1462 FILLER_3_167
*1463 FILLER_3_169
*1464 FILLER_3_181
*1465 FILLER_3_193
*1466 FILLER_3_205
*1467 FILLER_3_217
*1468 FILLER_3_223
*1469 FILLER_3_225
*1470 FILLER_3_237
*1471 FILLER_3_249
*1472 FILLER_3_261
*1473 FILLER_3_27
*1474 FILLER_3_273
*1475 FILLER_3_279
*1476 FILLER_3_281
*1477 FILLER_3_293
*1478 FILLER_3_3
*1479 FILLER_3_305
*1480 FILLER_3_317
*1481 FILLER_3_329
*1482 FILLER_3_335
*1483 FILLER_3_337
*1484 FILLER_3_39
*1485 FILLER_3_51
*1486 FILLER_3_55
*1487 FILLER_3_57
*1488 FILLER_3_69
*1489 FILLER_3_81
*1490 FILLER_3_93
*1491 FILLER_4_109
*1492 FILLER_4_121
*1493 FILLER_4_133
*1494 FILLER_4_139
*1495 FILLER_4_141
*1496 FILLER_4_15
*1497 FILLER_4_153
*1498 FILLER_4_165
*1499 FILLER_4_177
*1500 FILLER_4_189
*1501 FILLER_4_195
*1502 FILLER_4_197
*1503 FILLER_4_209
*1504 FILLER_4_221
*1505 FILLER_4_233
*1506 FILLER_4_245
*1507 FILLER_4_251
*1508 FILLER_4_253
*1509 FILLER_4_265
*1510 FILLER_4_27
*1511 FILLER_4_277
*1512 FILLER_4_289
*1513 FILLER_4_29
*1514 FILLER_4_3
*1515 FILLER_4_301
*1516 FILLER_4_307
*1517 FILLER_4_309
*1518 FILLER_4_321
*1519 FILLER_4_333
*1520 FILLER_4_337
*1521 FILLER_4_41
*1522 FILLER_4_53
*1523 FILLER_4_65
*1524 FILLER_4_77
*1525 FILLER_4_83
*1526 FILLER_4_85
*1527 FILLER_4_97
*1528 FILLER_5_105
*1529 FILLER_5_111
*1530 FILLER_5_113
*1531 FILLER_5_125
*1532 FILLER_5_137
*1533 FILLER_5_149
*1534 FILLER_5_15
*1535 FILLER_5_161
*1536 FILLER_5_167
*1537 FILLER_5_169
*1538 FILLER_5_181
*1539 FILLER_5_193
*1540 FILLER_5_205
*1541 FILLER_5_217
*1542 FILLER_5_223
*1543 FILLER_5_225
*1544 FILLER_5_237
*1545 FILLER_5_249
*1546 FILLER_5_261
*1547 FILLER_5_27
*1548 FILLER_5_273
*1549 FILLER_5_279
*1550 FILLER_5_281
*1551 FILLER_5_293
*1552 FILLER_5_3
*1553 FILLER_5_305
*1554 FILLER_5_317
*1555 FILLER_5_329
*1556 FILLER_5_335
*1557 FILLER_5_337
*1558 FILLER_5_39
*1559 FILLER_5_51
*1560 FILLER_5_55
*1561 FILLER_5_57
*1562 FILLER_5_69
*1563 FILLER_5_81
*1564 FILLER_5_93
*1565 FILLER_6_109
*1566 FILLER_6_121
*1567 FILLER_6_133
*1568 FILLER_6_139
*1569 FILLER_6_141
*1570 FILLER_6_15
*1571 FILLER_6_153
*1572 FILLER_6_165
*1573 FILLER_6_177
*1574 FILLER_6_189
*1575 FILLER_6_195
*1576 FILLER_6_197
*1577 FILLER_6_209
*1578 FILLER_6_221
*1579 FILLER_6_233
*1580 FILLER_6_245
*1581 FILLER_6_251
*1582 FILLER_6_253
*1583 FILLER_6_265
*1584 FILLER_6_27
*1585 FILLER_6_277
*1586 FILLER_6_289
*1587 FILLER_6_29
*1588 FILLER_6_3
*1589 FILLER_6_301
*1590 FILLER_6_307
*1591 FILLER_6_309
*1592 FILLER_6_321
*1593 FILLER_6_333
*1594 FILLER_6_337
*1595 FILLER_6_41
*1596 FILLER_6_53
*1597 FILLER_6_65
*1598 FILLER_6_77
*1599 FILLER_6_83
*1600 FILLER_6_85
*1601 FILLER_6_97
*1602 FILLER_7_105
*1603 FILLER_7_111
*1604 FILLER_7_113
*1605 FILLER_7_125
*1606 FILLER_7_137
*1607 FILLER_7_149
*1608 FILLER_7_15
*1609 FILLER_7_161
*1610 FILLER_7_167
*1611 FILLER_7_169
*1612 FILLER_7_181
*1613 FILLER_7_193
*1614 FILLER_7_205
*1615 FILLER_7_217
*1616 FILLER_7_223
*1617 FILLER_7_225
*1618 FILLER_7_237
*1619 FILLER_7_249
*1620 FILLER_7_261
*1621 FILLER_7_27
*1622 FILLER_7_273
*1623 FILLER_7_279
*1624 FILLER_7_281
*1625 FILLER_7_293
*1626 FILLER_7_3
*1627 FILLER_7_305
*1628 FILLER_7_317
*1629 FILLER_7_329
*1630 FILLER_7_335
*1631 FILLER_7_337
*1632 FILLER_7_39
*1633 FILLER_7_51
*1634 FILLER_7_55
*1635 FILLER_7_57
*1636 FILLER_7_69
*1637 FILLER_7_81
*1638 FILLER_7_93
*1639 FILLER_8_109
*1640 FILLER_8_121
*1641 FILLER_8_133
*1642 FILLER_8_139
*1643 FILLER_8_141
*1644 FILLER_8_15
*1645 FILLER_8_153
*1646 FILLER_8_165
*1647 FILLER_8_177
*1648 FILLER_8_189
*1649 FILLER_8_195
*1650 FILLER_8_197
*1651 FILLER_8_209
*1652 FILLER_8_221
*1653 FILLER_8_233
*1654 FILLER_8_245
*1655 FILLER_8_251
*1656 FILLER_8_253
*1657 FILLER_8_265
*1658 FILLER_8_27
*1659 FILLER_8_277
*1660 FILLER_8_289
*1661 FILLER_8_29
*1662 FILLER_8_3
*1663 FILLER_8_301
*1664 FILLER_8_307
*1665 FILLER_8_309
*1666 FILLER_8_321
*1667 FILLER_8_333
*1668 FILLER_8_337
*1669 FILLER_8_41
*1670 FILLER_8_53
*1671 FILLER_8_65
*1672 FILLER_8_77
*1673 FILLER_8_83
*1674 FILLER_8_85
*1675 FILLER_8_97
*1676 FILLER_9_105
*1677 FILLER_9_111
*1678 FILLER_9_113
*1679 FILLER_9_125
*1680 FILLER_9_137
*1681 FILLER_9_149
*1682 FILLER_9_15
*1683 FILLER_9_161
*1684 FILLER_9_167
*1685 FILLER_9_169
*1686 FILLER_9_181
*1687 FILLER_9_193
*1688 FILLER_9_205
*1689 FILLER_9_217
*1690 FILLER_9_223
*1691 FILLER_9_225
*1692 FILLER_9_237
*1693 FILLER_9_249
*1694 FILLER_9_261
*1695 FILLER_9_27
*1696 FILLER_9_273
*1697 FILLER_9_279
*1698 FILLER_9_281
*1699 FILLER_9_293
*1700 FILLER_9_3
*1701 FILLER_9_305
*1702 FILLER_9_317