*SPEF "ieee 1481-1999"
*DESIGN "tt_um_urish_sram_poc"
*DATE "11:11:11 Fri 11 11, 1111"
*VENDOR "OpenRCX"
*PROGRAM "Parallel Extraction"
*VERSION "1.0"
*DESIGN_FLOW "NAME_SCOPE LOCAL" "PIN_CAP NONE"
*DIVIDER /
*DELIMITER :
*BUS_DELIMITER []
*T_UNIT 1 NS
*C_UNIT 1 PF
*R_UNIT 1 OHM
*L_UNIT 1 HENRY

*NAME_MAP
*1 clk
*2 ena
*3 ram_addr0[0]
*4 ram_addr0[1]
*5 ram_addr0[2]
*6 ram_addr0[3]
*7 ram_addr0[4]
*8 net50
*9 net51
*10 net52
*11 net53
*12 ram_clk0
*13 ram_csb0
*14 ram_din0[0]
*15 ram_din0[10]
*16 ram_din0[11]
*17 ram_din0[12]
*18 ram_din0[13]
*19 ram_din0[14]
*20 ram_din0[15]
*21 ram_din0[16]
*22 ram_din0[17]
*23 ram_din0[18]
*24 ram_din0[19]
*25 ram_din0[1]
*26 ram_din0[20]
*27 ram_din0[21]
*28 ram_din0[22]
*29 ram_din0[23]
*30 ram_din0[24]
*31 ram_din0[25]
*32 ram_din0[26]
*33 ram_din0[27]
*34 ram_din0[28]
*35 ram_din0[29]
*36 ram_din0[2]
*37 ram_din0[30]
*38 ram_din0[31]
*39 ram_din0[3]
*40 ram_din0[4]
*41 ram_din0[5]
*42 ram_din0[6]
*43 ram_din0[7]
*44 ram_din0[8]
*45 ram_din0[9]
*46 ram_dout0[0]
*47 ram_dout0[10]
*48 ram_dout0[11]
*49 ram_dout0[12]
*50 ram_dout0[13]
*51 ram_dout0[14]
*52 ram_dout0[15]
*53 ram_dout0[16]
*54 ram_dout0[17]
*55 ram_dout0[18]
*56 ram_dout0[19]
*57 ram_dout0[1]
*58 ram_dout0[20]
*59 ram_dout0[21]
*60 ram_dout0[22]
*61 ram_dout0[23]
*62 ram_dout0[24]
*63 ram_dout0[25]
*64 ram_dout0[26]
*65 ram_dout0[27]
*66 ram_dout0[28]
*67 ram_dout0[29]
*68 ram_dout0[2]
*69 ram_dout0[30]
*70 ram_dout0[31]
*71 ram_dout0[3]
*72 ram_dout0[4]
*73 ram_dout0[5]
*74 ram_dout0[6]
*75 ram_dout0[7]
*76 ram_dout0[8]
*77 ram_dout0[9]
*78 ram_web0
*79 ram_wmask0[0]
*80 ram_wmask0[1]
*81 ram_wmask0[2]
*82 ram_wmask0[3]
*83 rst_n
*84 ui_in[0]
*85 ui_in[1]
*86 ui_in[2]
*87 ui_in[3]
*88 ui_in[4]
*89 ui_in[5]
*90 ui_in[6]
*91 ui_in[7]
*92 uio_in[0]
*93 uio_in[1]
*94 uio_in[2]
*95 uio_in[3]
*96 uio_in[4]
*97 uio_in[5]
*98 uio_in[6]
*99 uio_in[7]
*100 net54
*101 net55
*102 net56
*103 net57
*104 net58
*105 net59
*106 net60
*107 net61
*108 net62
*109 net63
*110 net64
*111 net65
*112 net66
*113 net67
*114 net68
*115 net69
*116 uo_out[0]
*117 uo_out[1]
*118 uo_out[2]
*119 uo_out[3]
*120 uo_out[4]
*121 uo_out[5]
*122 uo_out[6]
*123 uo_out[7]
*126 WE0
*127 WE1
*128 WE2
*129 WE3
*130 _000_
*131 _001_
*132 _002_
*133 _003_
*134 _004_
*135 _005_
*136 _006_
*137 _007_
*138 _008_
*139 _009_
*140 _010_
*141 _011_
*142 _012_
*143 _013_
*144 _014_
*145 _015_
*146 _016_
*147 _017_
*148 _018_
*149 _019_
*150 _020_
*151 _021_
*152 _022_
*153 _023_
*154 _024_
*155 _025_
*156 _026_
*157 _027_
*158 _028_
*159 _029_
*160 _030_
*161 _031_
*162 _032_
*163 _033_
*164 _034_
*165 _035_
*166 _036_
*167 _037_
*168 _038_
*169 _039_
*170 _040_
*171 _041_
*172 _042_
*173 _043_
*174 _044_
*175 _045_
*176 _046_
*177 _047_
*178 _048_
*179 _049_
*180 addr_high_reg
*181 clknet_0_clk
*182 clknet_1_0__leaf_clk
*183 clknet_1_1__leaf_clk
*184 net1
*185 net10
*186 net11
*187 net12
*188 net13
*189 net14
*190 net15
*191 net16
*192 net17
*193 net18
*194 net19
*195 net2
*196 net20
*197 net21
*198 net22
*199 net23
*200 net24
*201 net25
*202 net26
*203 net27
*204 net28
*205 net29
*206 net3
*207 net30
*208 net31
*209 net32
*210 net33
*211 net34
*212 net35
*213 net36
*214 net37
*215 net38
*216 net39
*217 net4
*218 net40
*219 net41
*220 net42
*221 net43
*222 net44
*223 net45
*224 net46
*225 net47
*226 net48
*227 net49
*228 net5
*229 net6
*230 net7
*231 net8
*232 net9
*233 out_bit_index\[3\]
*234 out_bit_index\[4\]
*235 FILLER_0_108
*236 FILLER_0_113
*237 FILLER_0_12
*238 FILLER_0_138
*239 FILLER_0_141
*240 FILLER_0_145
*241 FILLER_0_150
*242 FILLER_0_158
*243 FILLER_0_166
*244 FILLER_0_169
*245 FILLER_0_173
*246 FILLER_0_178
*247 FILLER_0_186
*248 FILLER_0_19
*249 FILLER_0_192
*250 FILLER_0_197
*251 FILLER_0_203
*252 FILLER_0_211
*253 FILLER_0_219
*254 FILLER_0_223
*255 FILLER_0_225
*256 FILLER_0_234
*257 FILLER_0_242
*258 FILLER_0_250
*259 FILLER_0_253
*260 FILLER_0_26
*261 FILLER_0_270
*262 FILLER_0_278
*263 FILLER_0_281
*264 FILLER_0_287
*265 FILLER_0_29
*266 FILLER_0_292
*267 FILLER_0_3
*268 FILLER_0_300
*269 FILLER_0_309
*270 FILLER_0_313
*271 FILLER_0_334
*272 FILLER_0_337
*273 FILLER_0_52
*274 FILLER_0_57
*275 FILLER_0_80
*276 FILLER_0_85
*277 FILLER_10_109
*278 FILLER_10_121
*279 FILLER_10_133
*280 FILLER_10_139
*281 FILLER_10_141
*282 FILLER_10_15
*283 FILLER_10_153
*284 FILLER_10_165
*285 FILLER_10_177
*286 FILLER_10_189
*287 FILLER_10_195
*288 FILLER_10_197
*289 FILLER_10_209
*290 FILLER_10_221
*291 FILLER_10_233
*292 FILLER_10_245
*293 FILLER_10_251
*294 FILLER_10_253
*295 FILLER_10_265
*296 FILLER_10_27
*297 FILLER_10_277
*298 FILLER_10_289
*299 FILLER_10_29
*300 FILLER_10_3
*301 FILLER_10_301
*302 FILLER_10_307
*303 FILLER_10_309
*304 FILLER_10_321
*305 FILLER_10_333
*306 FILLER_10_337
*307 FILLER_10_41
*308 FILLER_10_53
*309 FILLER_10_65
*310 FILLER_10_77
*311 FILLER_10_83
*312 FILLER_10_85
*313 FILLER_10_97
*314 FILLER_11_105
*315 FILLER_11_111
*316 FILLER_11_113
*317 FILLER_11_125
*318 FILLER_11_137
*319 FILLER_11_149
*320 FILLER_11_15
*321 FILLER_11_161
*322 FILLER_11_167
*323 FILLER_11_169
*324 FILLER_11_181
*325 FILLER_11_193
*326 FILLER_11_205
*327 FILLER_11_217
*328 FILLER_11_223
*329 FILLER_11_225
*330 FILLER_11_237
*331 FILLER_11_249
*332 FILLER_11_261
*333 FILLER_11_27
*334 FILLER_11_273
*335 FILLER_11_279
*336 FILLER_11_281
*337 FILLER_11_293
*338 FILLER_11_3
*339 FILLER_11_305
*340 FILLER_11_317
*341 FILLER_11_329
*342 FILLER_11_335
*343 FILLER_11_337
*344 FILLER_11_39
*345 FILLER_11_51
*346 FILLER_11_55
*347 FILLER_11_57
*348 FILLER_11_69
*349 FILLER_11_81
*350 FILLER_11_93
*351 FILLER_12_109
*352 FILLER_12_121
*353 FILLER_12_133
*354 FILLER_12_139
*355 FILLER_12_141
*356 FILLER_12_15
*357 FILLER_12_153
*358 FILLER_12_165
*359 FILLER_12_177
*360 FILLER_12_189
*361 FILLER_12_195
*362 FILLER_12_197
*363 FILLER_12_209
*364 FILLER_12_221
*365 FILLER_12_233
*366 FILLER_12_245
*367 FILLER_12_251
*368 FILLER_12_253
*369 FILLER_12_265
*370 FILLER_12_27
*371 FILLER_12_277
*372 FILLER_12_289
*373 FILLER_12_29
*374 FILLER_12_3
*375 FILLER_12_301
*376 FILLER_12_307
*377 FILLER_12_309
*378 FILLER_12_321
*379 FILLER_12_333
*380 FILLER_12_337
*381 FILLER_12_41
*382 FILLER_12_53
*383 FILLER_12_65
*384 FILLER_12_77
*385 FILLER_12_83
*386 FILLER_12_85
*387 FILLER_12_97
*388 FILLER_13_105
*389 FILLER_13_111
*390 FILLER_13_113
*391 FILLER_13_125
*392 FILLER_13_137
*393 FILLER_13_149
*394 FILLER_13_15
*395 FILLER_13_161
*396 FILLER_13_167
*397 FILLER_13_169
*398 FILLER_13_181
*399 FILLER_13_193
*400 FILLER_13_205
*401 FILLER_13_217
*402 FILLER_13_223
*403 FILLER_13_225
*404 FILLER_13_237
*405 FILLER_13_249
*406 FILLER_13_261
*407 FILLER_13_27
*408 FILLER_13_273
*409 FILLER_13_279
*410 FILLER_13_281
*411 FILLER_13_293
*412 FILLER_13_3
*413 FILLER_13_305
*414 FILLER_13_317
*415 FILLER_13_329
*416 FILLER_13_335
*417 FILLER_13_337
*418 FILLER_13_39
*419 FILLER_13_51
*420 FILLER_13_55
*421 FILLER_13_57
*422 FILLER_13_69
*423 FILLER_13_81
*424 FILLER_13_93
*425 FILLER_14_109
*426 FILLER_14_121
*427 FILLER_14_133
*428 FILLER_14_139
*429 FILLER_14_141
*430 FILLER_14_15
*431 FILLER_14_153
*432 FILLER_14_165
*433 FILLER_14_177
*434 FILLER_14_189
*435 FILLER_14_195
*436 FILLER_14_197
*437 FILLER_14_209
*438 FILLER_14_221
*439 FILLER_14_233
*440 FILLER_14_245
*441 FILLER_14_251
*442 FILLER_14_253
*443 FILLER_14_265
*444 FILLER_14_27
*445 FILLER_14_277
*446 FILLER_14_289
*447 FILLER_14_29
*448 FILLER_14_3
*449 FILLER_14_301
*450 FILLER_14_307
*451 FILLER_14_309
*452 FILLER_14_321
*453 FILLER_14_333
*454 FILLER_14_337
*455 FILLER_14_41
*456 FILLER_14_53
*457 FILLER_14_65
*458 FILLER_14_77
*459 FILLER_14_83
*460 FILLER_14_85
*461 FILLER_14_97
*462 FILLER_15_105
*463 FILLER_15_111
*464 FILLER_15_113
*465 FILLER_15_125
*466 FILLER_15_137
*467 FILLER_15_149
*468 FILLER_15_15
*469 FILLER_15_161
*470 FILLER_15_167
*471 FILLER_15_169
*472 FILLER_15_181
*473 FILLER_15_193
*474 FILLER_15_205
*475 FILLER_15_217
*476 FILLER_15_223
*477 FILLER_15_225
*478 FILLER_15_237
*479 FILLER_15_249
*480 FILLER_15_261
*481 FILLER_15_27
*482 FILLER_15_273
*483 FILLER_15_279
*484 FILLER_15_281
*485 FILLER_15_293
*486 FILLER_15_3
*487 FILLER_15_305
*488 FILLER_15_317
*489 FILLER_15_329
*490 FILLER_15_335
*491 FILLER_15_337
*492 FILLER_15_39
*493 FILLER_15_51
*494 FILLER_15_55
*495 FILLER_15_57
*496 FILLER_15_69
*497 FILLER_15_81
*498 FILLER_15_93
*499 FILLER_16_109
*500 FILLER_16_121
*501 FILLER_16_133
*502 FILLER_16_139
*503 FILLER_16_141
*504 FILLER_16_15
*505 FILLER_16_153
*506 FILLER_16_165
*507 FILLER_16_177
*508 FILLER_16_189
*509 FILLER_16_195
*510 FILLER_16_197
*511 FILLER_16_209
*512 FILLER_16_221
*513 FILLER_16_233
*514 FILLER_16_245
*515 FILLER_16_251
*516 FILLER_16_253
*517 FILLER_16_265
*518 FILLER_16_27
*519 FILLER_16_277
*520 FILLER_16_289
*521 FILLER_16_29
*522 FILLER_16_297
*523 FILLER_16_3
*524 FILLER_16_305
*525 FILLER_16_309
*526 FILLER_16_321
*527 FILLER_16_333
*528 FILLER_16_337
*529 FILLER_16_41
*530 FILLER_16_53
*531 FILLER_16_65
*532 FILLER_16_77
*533 FILLER_16_83
*534 FILLER_16_85
*535 FILLER_16_97
*536 FILLER_17_105
*537 FILLER_17_111
*538 FILLER_17_113
*539 FILLER_17_125
*540 FILLER_17_137
*541 FILLER_17_149
*542 FILLER_17_15
*543 FILLER_17_161
*544 FILLER_17_167
*545 FILLER_17_169
*546 FILLER_17_181
*547 FILLER_17_193
*548 FILLER_17_205
*549 FILLER_17_217
*550 FILLER_17_223
*551 FILLER_17_225
*552 FILLER_17_237
*553 FILLER_17_249
*554 FILLER_17_261
*555 FILLER_17_27
*556 FILLER_17_273
*557 FILLER_17_279
*558 FILLER_17_281
*559 FILLER_17_293
*560 FILLER_17_3
*561 FILLER_17_303
*562 FILLER_17_315
*563 FILLER_17_327
*564 FILLER_17_335
*565 FILLER_17_337
*566 FILLER_17_39
*567 FILLER_17_51
*568 FILLER_17_55
*569 FILLER_17_57
*570 FILLER_17_69
*571 FILLER_17_81
*572 FILLER_17_93
*573 FILLER_18_109
*574 FILLER_18_121
*575 FILLER_18_133
*576 FILLER_18_139
*577 FILLER_18_141
*578 FILLER_18_15
*579 FILLER_18_153
*580 FILLER_18_165
*581 FILLER_18_177
*582 FILLER_18_189
*583 FILLER_18_195
*584 FILLER_18_197
*585 FILLER_18_209
*586 FILLER_18_221
*587 FILLER_18_233
*588 FILLER_18_245
*589 FILLER_18_251
*590 FILLER_18_253
*591 FILLER_18_265
*592 FILLER_18_27
*593 FILLER_18_277
*594 FILLER_18_289
*595 FILLER_18_29
*596 FILLER_18_3
*597 FILLER_18_301
*598 FILLER_18_307
*599 FILLER_18_309
*600 FILLER_18_321
*601 FILLER_18_333
*602 FILLER_18_337
*603 FILLER_18_41
*604 FILLER_18_53
*605 FILLER_18_65
*606 FILLER_18_77
*607 FILLER_18_83
*608 FILLER_18_85
*609 FILLER_18_97
*610 FILLER_19_105
*611 FILLER_19_111
*612 FILLER_19_113
*613 FILLER_19_125
*614 FILLER_19_137
*615 FILLER_19_149
*616 FILLER_19_15
*617 FILLER_19_161
*618 FILLER_19_167
*619 FILLER_19_169
*620 FILLER_19_181
*621 FILLER_19_193
*622 FILLER_19_205
*623 FILLER_19_217
*624 FILLER_19_223
*625 FILLER_19_225
*626 FILLER_19_237
*627 FILLER_19_249
*628 FILLER_19_261
*629 FILLER_19_27
*630 FILLER_19_273
*631 FILLER_19_279
*632 FILLER_19_281
*633 FILLER_19_293
*634 FILLER_19_3
*635 FILLER_19_305
*636 FILLER_19_317
*637 FILLER_19_329
*638 FILLER_19_335
*639 FILLER_19_337
*640 FILLER_19_39
*641 FILLER_19_51
*642 FILLER_19_55
*643 FILLER_19_57
*644 FILLER_19_69
*645 FILLER_19_81
*646 FILLER_19_93
*647 FILLER_1_108
*648 FILLER_1_11
*649 FILLER_1_113
*650 FILLER_1_117
*651 FILLER_1_122
*652 FILLER_1_130
*653 FILLER_1_139
*654 FILLER_1_148
*655 FILLER_1_15
*656 FILLER_1_158
*657 FILLER_1_166
*658 FILLER_1_169
*659 FILLER_1_177
*660 FILLER_1_185
*661 FILLER_1_196
*662 FILLER_1_204
*663 FILLER_1_211
*664 FILLER_1_22
*665 FILLER_1_222
*666 FILLER_1_225
*667 FILLER_1_231
*668 FILLER_1_235
*669 FILLER_1_251
*670 FILLER_1_270
*671 FILLER_1_277
*672 FILLER_1_281
*673 FILLER_1_287
*674 FILLER_1_29
*675 FILLER_1_297
*676 FILLER_1_3
*677 FILLER_1_305
*678 FILLER_1_311
*679 FILLER_1_334
*680 FILLER_1_337
*681 FILLER_1_54
*682 FILLER_1_57
*683 FILLER_1_62
*684 FILLER_1_69
*685 FILLER_1_76
*686 FILLER_1_83
*687 FILLER_20_109
*688 FILLER_20_121
*689 FILLER_20_133
*690 FILLER_20_139
*691 FILLER_20_141
*692 FILLER_20_15
*693 FILLER_20_153
*694 FILLER_20_165
*695 FILLER_20_177
*696 FILLER_20_189
*697 FILLER_20_195
*698 FILLER_20_197
*699 FILLER_20_209
*700 FILLER_20_221
*701 FILLER_20_233
*702 FILLER_20_245
*703 FILLER_20_251
*704 FILLER_20_253
*705 FILLER_20_265
*706 FILLER_20_27
*707 FILLER_20_277
*708 FILLER_20_289
*709 FILLER_20_29
*710 FILLER_20_3
*711 FILLER_20_301
*712 FILLER_20_307
*713 FILLER_20_309
*714 FILLER_20_321
*715 FILLER_20_333
*716 FILLER_20_337
*717 FILLER_20_41
*718 FILLER_20_53
*719 FILLER_20_65
*720 FILLER_20_77
*721 FILLER_20_83
*722 FILLER_20_85
*723 FILLER_20_97
*724 FILLER_21_105
*725 FILLER_21_111
*726 FILLER_21_113
*727 FILLER_21_125
*728 FILLER_21_137
*729 FILLER_21_149
*730 FILLER_21_15
*731 FILLER_21_161
*732 FILLER_21_167
*733 FILLER_21_169
*734 FILLER_21_181
*735 FILLER_21_193
*736 FILLER_21_205
*737 FILLER_21_217
*738 FILLER_21_223
*739 FILLER_21_225
*740 FILLER_21_237
*741 FILLER_21_249
*742 FILLER_21_261
*743 FILLER_21_27
*744 FILLER_21_273
*745 FILLER_21_279
*746 FILLER_21_281
*747 FILLER_21_293
*748 FILLER_21_3
*749 FILLER_21_305
*750 FILLER_21_317
*751 FILLER_21_329
*752 FILLER_21_335
*753 FILLER_21_337
*754 FILLER_21_39
*755 FILLER_21_51
*756 FILLER_21_55
*757 FILLER_21_57
*758 FILLER_21_69
*759 FILLER_21_81
*760 FILLER_21_93
*761 FILLER_22_109
*762 FILLER_22_121
*763 FILLER_22_133
*764 FILLER_22_139
*765 FILLER_22_141
*766 FILLER_22_15
*767 FILLER_22_153
*768 FILLER_22_165
*769 FILLER_22_177
*770 FILLER_22_189
*771 FILLER_22_195
*772 FILLER_22_197
*773 FILLER_22_209
*774 FILLER_22_221
*775 FILLER_22_233
*776 FILLER_22_245
*777 FILLER_22_251
*778 FILLER_22_253
*779 FILLER_22_265
*780 FILLER_22_27
*781 FILLER_22_277
*782 FILLER_22_289
*783 FILLER_22_29
*784 FILLER_22_3
*785 FILLER_22_301
*786 FILLER_22_307
*787 FILLER_22_309
*788 FILLER_22_321
*789 FILLER_22_333
*790 FILLER_22_337
*791 FILLER_22_41
*792 FILLER_22_53
*793 FILLER_22_65
*794 FILLER_22_77
*795 FILLER_22_83
*796 FILLER_22_85
*797 FILLER_22_97
*798 FILLER_23_105
*799 FILLER_23_111
*800 FILLER_23_113
*801 FILLER_23_125
*802 FILLER_23_137
*803 FILLER_23_149
*804 FILLER_23_15
*805 FILLER_23_161
*806 FILLER_23_167
*807 FILLER_23_169
*808 FILLER_23_181
*809 FILLER_23_193
*810 FILLER_23_205
*811 FILLER_23_217
*812 FILLER_23_223
*813 FILLER_23_225
*814 FILLER_23_237
*815 FILLER_23_249
*816 FILLER_23_261
*817 FILLER_23_27
*818 FILLER_23_273
*819 FILLER_23_279
*820 FILLER_23_281
*821 FILLER_23_293
*822 FILLER_23_3
*823 FILLER_23_305
*824 FILLER_23_317
*825 FILLER_23_329
*826 FILLER_23_335
*827 FILLER_23_337
*828 FILLER_23_39
*829 FILLER_23_51
*830 FILLER_23_55
*831 FILLER_23_57
*832 FILLER_23_69
*833 FILLER_23_81
*834 FILLER_23_93
*835 FILLER_24_109
*836 FILLER_24_121
*837 FILLER_24_133
*838 FILLER_24_139
*839 FILLER_24_141
*840 FILLER_24_15
*841 FILLER_24_153
*842 FILLER_24_165
*843 FILLER_24_177
*844 FILLER_24_189
*845 FILLER_24_195
*846 FILLER_24_197
*847 FILLER_24_209
*848 FILLER_24_221
*849 FILLER_24_233
*850 FILLER_24_245
*851 FILLER_24_251
*852 FILLER_24_253
*853 FILLER_24_265
*854 FILLER_24_27
*855 FILLER_24_277
*856 FILLER_24_284
*857 FILLER_24_29
*858 FILLER_24_296
*859 FILLER_24_3
*860 FILLER_24_309
*861 FILLER_24_321
*862 FILLER_24_333
*863 FILLER_24_337
*864 FILLER_24_41
*865 FILLER_24_53
*866 FILLER_24_65
*867 FILLER_24_77
*868 FILLER_24_83
*869 FILLER_24_85
*870 FILLER_24_97
*871 FILLER_25_105
*872 FILLER_25_111
*873 FILLER_25_113
*874 FILLER_25_125
*875 FILLER_25_137
*876 FILLER_25_149
*877 FILLER_25_15
*878 FILLER_25_161
*879 FILLER_25_167
*880 FILLER_25_169
*881 FILLER_25_181
*882 FILLER_25_193
*883 FILLER_25_205
*884 FILLER_25_217
*885 FILLER_25_223
*886 FILLER_25_225
*887 FILLER_25_237
*888 FILLER_25_249
*889 FILLER_25_261
*890 FILLER_25_27
*891 FILLER_25_273
*892 FILLER_25_279
*893 FILLER_25_281
*894 FILLER_25_293
*895 FILLER_25_3
*896 FILLER_25_305
*897 FILLER_25_317
*898 FILLER_25_329
*899 FILLER_25_335
*900 FILLER_25_337
*901 FILLER_25_39
*902 FILLER_25_51
*903 FILLER_25_55
*904 FILLER_25_57
*905 FILLER_25_69
*906 FILLER_25_81
*907 FILLER_25_93
*908 FILLER_26_109
*909 FILLER_26_121
*910 FILLER_26_133
*911 FILLER_26_139
*912 FILLER_26_141
*913 FILLER_26_15
*914 FILLER_26_153
*915 FILLER_26_165
*916 FILLER_26_177
*917 FILLER_26_189
*918 FILLER_26_195
*919 FILLER_26_197
*920 FILLER_26_209
*921 FILLER_26_221
*922 FILLER_26_233
*923 FILLER_26_245
*924 FILLER_26_251
*925 FILLER_26_253
*926 FILLER_26_265
*927 FILLER_26_27
*928 FILLER_26_277
*929 FILLER_26_289
*930 FILLER_26_29
*931 FILLER_26_3
*932 FILLER_26_301
*933 FILLER_26_307
*934 FILLER_26_309
*935 FILLER_26_321
*936 FILLER_26_333
*937 FILLER_26_337
*938 FILLER_26_41
*939 FILLER_26_53
*940 FILLER_26_65
*941 FILLER_26_77
*942 FILLER_26_83
*943 FILLER_26_85
*944 FILLER_26_97
*945 FILLER_27_105
*946 FILLER_27_111
*947 FILLER_27_113
*948 FILLER_27_125
*949 FILLER_27_137
*950 FILLER_27_149
*951 FILLER_27_15
*952 FILLER_27_161
*953 FILLER_27_167
*954 FILLER_27_169
*955 FILLER_27_181
*956 FILLER_27_193
*957 FILLER_27_205
*958 FILLER_27_217
*959 FILLER_27_223
*960 FILLER_27_225
*961 FILLER_27_237
*962 FILLER_27_249
*963 FILLER_27_261
*964 FILLER_27_27
*965 FILLER_27_273
*966 FILLER_27_279
*967 FILLER_27_281
*968 FILLER_27_293
*969 FILLER_27_3
*970 FILLER_27_305
*971 FILLER_27_317
*972 FILLER_27_329
*973 FILLER_27_335
*974 FILLER_27_337
*975 FILLER_27_39
*976 FILLER_27_51
*977 FILLER_27_55
*978 FILLER_27_57
*979 FILLER_27_69
*980 FILLER_27_81
*981 FILLER_27_93
*982 FILLER_28_109
*983 FILLER_28_121
*984 FILLER_28_133
*985 FILLER_28_139
*986 FILLER_28_141
*987 FILLER_28_15
*988 FILLER_28_153
*989 FILLER_28_165
*990 FILLER_28_177
*991 FILLER_28_189
*992 FILLER_28_195
*993 FILLER_28_197
*994 FILLER_28_209
*995 FILLER_28_221
*996 FILLER_28_233
*997 FILLER_28_245
*998 FILLER_28_251
*999 FILLER_28_253
*1000 FILLER_28_265
*1001 FILLER_28_27
*1002 FILLER_28_277
*1003 FILLER_28_289
*1004 FILLER_28_29
*1005 FILLER_28_3
*1006 FILLER_28_301
*1007 FILLER_28_307
*1008 FILLER_28_309
*1009 FILLER_28_321
*1010 FILLER_28_333
*1011 FILLER_28_337
*1012 FILLER_28_41
*1013 FILLER_28_53
*1014 FILLER_28_65
*1015 FILLER_28_77
*1016 FILLER_28_83
*1017 FILLER_28_85
*1018 FILLER_28_97
*1019 FILLER_29_105
*1020 FILLER_29_111
*1021 FILLER_29_113
*1022 FILLER_29_125
*1023 FILLER_29_137
*1024 FILLER_29_149
*1025 FILLER_29_15
*1026 FILLER_29_161
*1027 FILLER_29_167
*1028 FILLER_29_169
*1029 FILLER_29_181
*1030 FILLER_29_193
*1031 FILLER_29_205
*1032 FILLER_29_217
*1033 FILLER_29_223
*1034 FILLER_29_225
*1035 FILLER_29_237
*1036 FILLER_29_249
*1037 FILLER_29_261
*1038 FILLER_29_27
*1039 FILLER_29_273
*1040 FILLER_29_279
*1041 FILLER_29_281
*1042 FILLER_29_293
*1043 FILLER_29_3
*1044 FILLER_29_305
*1045 FILLER_29_317
*1046 FILLER_29_329
*1047 FILLER_29_335
*1048 FILLER_29_337
*1049 FILLER_29_39
*1050 FILLER_29_51
*1051 FILLER_29_55
*1052 FILLER_29_57
*1053 FILLER_29_69
*1054 FILLER_29_81
*1055 FILLER_29_93
*1056 FILLER_2_100
*1057 FILLER_2_125
*1058 FILLER_2_133
*1059 FILLER_2_138
*1060 FILLER_2_14
*1061 FILLER_2_141
*1062 FILLER_2_146
*1063 FILLER_2_155
*1064 FILLER_2_162
*1065 FILLER_2_173
*1066 FILLER_2_184
*1067 FILLER_2_193
*1068 FILLER_2_197
*1069 FILLER_2_204
*1070 FILLER_2_215
*1071 FILLER_2_22
*1072 FILLER_2_226
*1073 FILLER_2_249
*1074 FILLER_2_253
*1075 FILLER_2_26
*1076 FILLER_2_276
*1077 FILLER_2_284
*1078 FILLER_2_29
*1079 FILLER_2_292
*1080 FILLER_2_3
*1081 FILLER_2_302
*1082 FILLER_2_309
*1083 FILLER_2_336
*1084 FILLER_2_36
*1085 FILLER_2_43
*1086 FILLER_2_50
*1087 FILLER_2_75
*1088 FILLER_2_82
*1089 FILLER_2_85
*1090 FILLER_2_89
*1091 FILLER_2_93
*1092 FILLER_30_109
*1093 FILLER_30_121
*1094 FILLER_30_133
*1095 FILLER_30_139
*1096 FILLER_30_141
*1097 FILLER_30_15
*1098 FILLER_30_153
*1099 FILLER_30_165
*1100 FILLER_30_177
*1101 FILLER_30_189
*1102 FILLER_30_195
*1103 FILLER_30_197
*1104 FILLER_30_209
*1105 FILLER_30_221
*1106 FILLER_30_233
*1107 FILLER_30_245
*1108 FILLER_30_251
*1109 FILLER_30_253
*1110 FILLER_30_265
*1111 FILLER_30_27
*1112 FILLER_30_277
*1113 FILLER_30_289
*1114 FILLER_30_29
*1115 FILLER_30_3
*1116 FILLER_30_301
*1117 FILLER_30_307
*1118 FILLER_30_309
*1119 FILLER_30_321
*1120 FILLER_30_333
*1121 FILLER_30_337
*1122 FILLER_30_41
*1123 FILLER_30_53
*1124 FILLER_30_65
*1125 FILLER_30_77
*1126 FILLER_30_83
*1127 FILLER_30_85
*1128 FILLER_30_97
*1129 FILLER_31_105
*1130 FILLER_31_111
*1131 FILLER_31_113
*1132 FILLER_31_125
*1133 FILLER_31_137
*1134 FILLER_31_149
*1135 FILLER_31_15
*1136 FILLER_31_161
*1137 FILLER_31_167
*1138 FILLER_31_169
*1139 FILLER_31_181
*1140 FILLER_31_193
*1141 FILLER_31_205
*1142 FILLER_31_217
*1143 FILLER_31_223
*1144 FILLER_31_225
*1145 FILLER_31_237
*1146 FILLER_31_249
*1147 FILLER_31_261
*1148 FILLER_31_27
*1149 FILLER_31_273
*1150 FILLER_31_279
*1151 FILLER_31_281
*1152 FILLER_31_293
*1153 FILLER_31_3
*1154 FILLER_31_305
*1155 FILLER_31_317
*1156 FILLER_31_329
*1157 FILLER_31_335
*1158 FILLER_31_337
*1159 FILLER_31_39
*1160 FILLER_31_51
*1161 FILLER_31_55
*1162 FILLER_31_57
*1163 FILLER_31_69
*1164 FILLER_31_81
*1165 FILLER_31_93
*1166 FILLER_32_109
*1167 FILLER_32_121
*1168 FILLER_32_133
*1169 FILLER_32_139
*1170 FILLER_32_141
*1171 FILLER_32_15
*1172 FILLER_32_153
*1173 FILLER_32_165
*1174 FILLER_32_177
*1175 FILLER_32_189
*1176 FILLER_32_195
*1177 FILLER_32_197
*1178 FILLER_32_209
*1179 FILLER_32_221
*1180 FILLER_32_233
*1181 FILLER_32_245
*1182 FILLER_32_251
*1183 FILLER_32_253
*1184 FILLER_32_265
*1185 FILLER_32_27
*1186 FILLER_32_277
*1187 FILLER_32_289
*1188 FILLER_32_29
*1189 FILLER_32_3
*1190 FILLER_32_301
*1191 FILLER_32_307
*1192 FILLER_32_309
*1193 FILLER_32_321
*1194 FILLER_32_333
*1195 FILLER_32_337
*1196 FILLER_32_41
*1197 FILLER_32_53
*1198 FILLER_32_65
*1199 FILLER_32_77
*1200 FILLER_32_83
*1201 FILLER_32_85
*1202 FILLER_32_97
*1203 FILLER_33_105
*1204 FILLER_33_111
*1205 FILLER_33_113
*1206 FILLER_33_125
*1207 FILLER_33_137
*1208 FILLER_33_149
*1209 FILLER_33_15
*1210 FILLER_33_161
*1211 FILLER_33_167
*1212 FILLER_33_169
*1213 FILLER_33_181
*1214 FILLER_33_193
*1215 FILLER_33_205
*1216 FILLER_33_217
*1217 FILLER_33_223
*1218 FILLER_33_225
*1219 FILLER_33_237
*1220 FILLER_33_249
*1221 FILLER_33_261
*1222 FILLER_33_27
*1223 FILLER_33_273
*1224 FILLER_33_279
*1225 FILLER_33_281
*1226 FILLER_33_293
*1227 FILLER_33_3
*1228 FILLER_33_305
*1229 FILLER_33_317
*1230 FILLER_33_329
*1231 FILLER_33_335
*1232 FILLER_33_337
*1233 FILLER_33_39
*1234 FILLER_33_51
*1235 FILLER_33_55
*1236 FILLER_33_57
*1237 FILLER_33_69
*1238 FILLER_33_81
*1239 FILLER_33_93
*1240 FILLER_34_109
*1241 FILLER_34_121
*1242 FILLER_34_133
*1243 FILLER_34_139
*1244 FILLER_34_141
*1245 FILLER_34_153
*1246 FILLER_34_165
*1247 FILLER_34_177
*1248 FILLER_34_189
*1249 FILLER_34_195
*1250 FILLER_34_197
*1251 FILLER_34_20
*1252 FILLER_34_209
*1253 FILLER_34_221
*1254 FILLER_34_233
*1255 FILLER_34_249
*1256 FILLER_34_253
*1257 FILLER_34_259
*1258 FILLER_34_267
*1259 FILLER_34_273
*1260 FILLER_34_285
*1261 FILLER_34_29
*1262 FILLER_34_297
*1263 FILLER_34_3
*1264 FILLER_34_304
*1265 FILLER_34_309
*1266 FILLER_34_321
*1267 FILLER_34_333
*1268 FILLER_34_337
*1269 FILLER_34_41
*1270 FILLER_34_53
*1271 FILLER_34_64
*1272 FILLER_34_76
*1273 FILLER_34_8
*1274 FILLER_34_85
*1275 FILLER_34_97
*1276 FILLER_35_103
*1277 FILLER_35_110
*1278 FILLER_35_113
*1279 FILLER_35_12
*1280 FILLER_35_120
*1281 FILLER_35_124
*1282 FILLER_35_128
*1283 FILLER_35_141
*1284 FILLER_35_153
*1285 FILLER_35_165
*1286 FILLER_35_169
*1287 FILLER_35_181
*1288 FILLER_35_19
*1289 FILLER_35_193
*1290 FILLER_35_197
*1291 FILLER_35_203
*1292 FILLER_35_211
*1293 FILLER_35_219
*1294 FILLER_35_223
*1295 FILLER_35_225
*1296 FILLER_35_231
*1297 FILLER_35_247
*1298 FILLER_35_251
*1299 FILLER_35_253
*1300 FILLER_35_26
*1301 FILLER_35_271
*1302 FILLER_35_279
*1303 FILLER_35_281
*1304 FILLER_35_286
*1305 FILLER_35_29
*1306 FILLER_35_293
*1307 FILLER_35_3
*1308 FILLER_35_300
*1309 FILLER_35_309
*1310 FILLER_35_315
*1311 FILLER_35_323
*1312 FILLER_35_331
*1313 FILLER_35_335
*1314 FILLER_35_337
*1315 FILLER_35_40
*1316 FILLER_35_47
*1317 FILLER_35_54
*1318 FILLER_35_57
*1319 FILLER_35_68
*1320 FILLER_35_75
*1321 FILLER_35_82
*1322 FILLER_35_85
*1323 FILLER_35_96
*1324 FILLER_3_100
*1325 FILLER_3_110
*1326 FILLER_3_113
*1327 FILLER_3_119
*1328 FILLER_3_127
*1329 FILLER_3_135
*1330 FILLER_3_148
*1331 FILLER_3_15
*1332 FILLER_3_157
*1333 FILLER_3_161
*1334 FILLER_3_166
*1335 FILLER_3_169
*1336 FILLER_3_178
*1337 FILLER_3_189
*1338 FILLER_3_197
*1339 FILLER_3_206
*1340 FILLER_3_217
*1341 FILLER_3_223
*1342 FILLER_3_225
*1343 FILLER_3_242
*1344 FILLER_3_261
*1345 FILLER_3_27
*1346 FILLER_3_274
*1347 FILLER_3_281
*1348 FILLER_3_286
*1349 FILLER_3_290
*1350 FILLER_3_3
*1351 FILLER_3_301
*1352 FILLER_3_310
*1353 FILLER_3_334
*1354 FILLER_3_337
*1355 FILLER_3_39
*1356 FILLER_3_46
*1357 FILLER_3_50
*1358 FILLER_3_54
*1359 FILLER_3_57
*1360 FILLER_3_63
*1361 FILLER_3_67
*1362 FILLER_3_74
*1363 FILLER_3_78
*1364 FILLER_3_82
*1365 FILLER_3_88
*1366 FILLER_3_92
*1367 FILLER_4_102
*1368 FILLER_4_109
*1369 FILLER_4_116
*1370 FILLER_4_124
*1371 FILLER_4_132
*1372 FILLER_4_138
*1373 FILLER_4_141
*1374 FILLER_4_147
*1375 FILLER_4_15
*1376 FILLER_4_160
*1377 FILLER_4_171
*1378 FILLER_4_179
*1379 FILLER_4_189
*1380 FILLER_4_195
*1381 FILLER_4_197
*1382 FILLER_4_210
*1383 FILLER_4_218
*1384 FILLER_4_226
*1385 FILLER_4_234
*1386 FILLER_4_242
*1387 FILLER_4_250
*1388 FILLER_4_253
*1389 FILLER_4_260
*1390 FILLER_4_27
*1391 FILLER_4_273
*1392 FILLER_4_280
*1393 FILLER_4_29
*1394 FILLER_4_294
*1395 FILLER_4_3
*1396 FILLER_4_301
*1397 FILLER_4_307
*1398 FILLER_4_309
*1399 FILLER_4_316
*1400 FILLER_4_336
*1401 FILLER_4_41
*1402 FILLER_4_53
*1403 FILLER_4_61
*1404 FILLER_4_66
*1405 FILLER_4_78
*1406 FILLER_4_85
*1407 FILLER_4_97
*1408 FILLER_5_105
*1409 FILLER_5_111
*1410 FILLER_5_113
*1411 FILLER_5_118
*1412 FILLER_5_122
*1413 FILLER_5_126
*1414 FILLER_5_130
*1415 FILLER_5_135
*1416 FILLER_5_141
*1417 FILLER_5_146
*1418 FILLER_5_15
*1419 FILLER_5_156
*1420 FILLER_5_169
*1421 FILLER_5_179
*1422 FILLER_5_191
*1423 FILLER_5_203
*1424 FILLER_5_215
*1425 FILLER_5_223
*1426 FILLER_5_225
*1427 FILLER_5_231
*1428 FILLER_5_243
*1429 FILLER_5_259
*1430 FILLER_5_267
*1431 FILLER_5_27
*1432 FILLER_5_277
*1433 FILLER_5_281
*1434 FILLER_5_292
*1435 FILLER_5_299
*1436 FILLER_5_3
*1437 FILLER_5_306
*1438 FILLER_5_310
*1439 FILLER_5_315
*1440 FILLER_5_323
*1441 FILLER_5_329
*1442 FILLER_5_335
*1443 FILLER_5_337
*1444 FILLER_5_39
*1445 FILLER_5_51
*1446 FILLER_5_55
*1447 FILLER_5_57
*1448 FILLER_5_69
*1449 FILLER_5_81
*1450 FILLER_5_93
*1451 FILLER_6_109
*1452 FILLER_6_121
*1453 FILLER_6_133
*1454 FILLER_6_139
*1455 FILLER_6_141
*1456 FILLER_6_15
*1457 FILLER_6_153
*1458 FILLER_6_165
*1459 FILLER_6_177
*1460 FILLER_6_189
*1461 FILLER_6_195
*1462 FILLER_6_197
*1463 FILLER_6_209
*1464 FILLER_6_221
*1465 FILLER_6_233
*1466 FILLER_6_245
*1467 FILLER_6_251
*1468 FILLER_6_253
*1469 FILLER_6_265
*1470 FILLER_6_269
*1471 FILLER_6_27
*1472 FILLER_6_274
*1473 FILLER_6_278
*1474 FILLER_6_282
*1475 FILLER_6_29
*1476 FILLER_6_294
*1477 FILLER_6_3
*1478 FILLER_6_302
*1479 FILLER_6_306
*1480 FILLER_6_309
*1481 FILLER_6_315
*1482 FILLER_6_323
*1483 FILLER_6_331
*1484 FILLER_6_337
*1485 FILLER_6_41
*1486 FILLER_6_53
*1487 FILLER_6_65
*1488 FILLER_6_77
*1489 FILLER_6_83
*1490 FILLER_6_85
*1491 FILLER_6_97
*1492 FILLER_7_105
*1493 FILLER_7_111
*1494 FILLER_7_113
*1495 FILLER_7_125
*1496 FILLER_7_137
*1497 FILLER_7_149
*1498 FILLER_7_15
*1499 FILLER_7_161
*1500 FILLER_7_167
*1501 FILLER_7_169
*1502 FILLER_7_181
*1503 FILLER_7_193
*1504 FILLER_7_205
*1505 FILLER_7_217
*1506 FILLER_7_223
*1507 FILLER_7_225
*1508 FILLER_7_237
*1509 FILLER_7_249
*1510 FILLER_7_261
*1511 FILLER_7_27
*1512 FILLER_7_273
*1513 FILLER_7_279
*1514 FILLER_7_281
*1515 FILLER_7_293
*1516 FILLER_7_3
*1517 FILLER_7_305
*1518 FILLER_7_311
*1519 FILLER_7_315
*1520 FILLER_7_322
*1521 FILLER_7_334
*1522 FILLER_7_337
*1523 FILLER_7_39
*1524 FILLER_7_51
*1525 FILLER_7_55
*1526 FILLER_7_57
*1527 FILLER_7_69
*1528 FILLER_7_81
*1529 FILLER_7_93
*1530 FILLER_8_109
*1531 FILLER_8_121
*1532 FILLER_8_133
*1533 FILLER_8_139
*1534 FILLER_8_141
*1535 FILLER_8_15
*1536 FILLER_8_153
*1537 FILLER_8_165
*1538 FILLER_8_177
*1539 FILLER_8_189
*1540 FILLER_8_195
*1541 FILLER_8_197
*1542 FILLER_8_209
*1543 FILLER_8_221
*1544 FILLER_8_233
*1545 FILLER_8_245
*1546 FILLER_8_251
*1547 FILLER_8_253
*1548 FILLER_8_265
*1549 FILLER_8_27
*1550 FILLER_8_277
*1551 FILLER_8_289
*1552 FILLER_8_29
*1553 FILLER_8_3
*1554 FILLER_8_301
*1555 FILLER_8_307
*1556 FILLER_8_309
*1557 FILLER_8_315
*1558 FILLER_8_336
*1559 FILLER_8_41
*1560 FILLER_8_53
*1561 FILLER_8_65
*1562 FILLER_8_77
*1563 FILLER_8_83
*1564 FILLER_8_85
*1565 FILLER_8_97
*1566 FILLER_9_105
*1567 FILLER_9_111
*1568 FILLER_9_113
*1569 FILLER_9_125
*1570 FILLER_9_137
*1571 FILLER_9_149
*1572 FILLER_9_15
*1573 FILLER_9_161
*1574 FILLER_9_167
*1575 FILLER_9_169
*1576 FILLER_9_181
*1577 FILLER_9_193
*1578 FILLER_9_205
*1579 FILLER_9_217
*1580 FILLER_9_223
*1581 FILLER_9_225
*1582 FILLER_9_237
*1583 FILLER_9_249
*1584 FILLER_9_261
*1585 FILLER_9_27
*1586 FILLER_9_273
*1587 FILLER_9_279
*1588 FILLER_9_281
*1589 FILLER_9_293
*1590 FILLER_9_3
*1591 FILLER_9_305
*1592 FILLER_9_317
*1593 FILLER_9_329
*1594 FILLER_9_335
*1595 FILLER_9_337
*1596 FILLER_9_39
*1597 FILLER_9_51
*1598 FILLER_9_55
*1599 FILLER_9_57
*1600 FILLER_9_69
*1601 FILLER_9_81
*1602 FILLER_9_93
*1603 PHY_0
*1604 PHY_1
*1605 PHY_10
*1606 PHY_11
*1607 PHY_12
*1608 PHY_13
*1609 PHY_14
*1610 PHY_15
*1611 PHY_16
*1612 PHY_17
*1613 PHY_18
*1614 PHY_19
*1615 PHY_2
*1616 PHY_20
*1617 PHY_21
*1618 PHY_22
*1619 PHY_23
*1620 PHY_24
*1621 PHY_25
*1622 PHY_26
*1623 PHY_27
*1624 PHY_28
*1625 PHY_29
*1626 PHY_3
*1627 PHY_30
*1628 PHY_31
*1629 PHY_32
*1630 PHY_33
*1631 PHY_34
*1632 PHY_35
*1633 PHY_36
*1634 PHY_37
*1635 PHY_38
*1636 PHY_39
*1637 PHY_4
*1638 PHY_40
*1639 PHY_41
*1640 PHY_42
*1641 PHY_43
*1642 PHY_44
*1643 PHY_45
*1644 PHY_46
*1645 PHY_47
*1646 PHY_48
*1647 PHY_49
*1648 PHY_5
*1649 PHY_50
*1650 PHY_51
*1651 PHY_52
*1652 PHY_53
*1653 PHY_54
*1654 PHY_55
*1655 PHY_56
*1656 PHY_57
*1657 PHY_58
*1658 PHY_59
*1659 PHY_6
*1660 PHY_60
*1661 PHY_61
*1662 PHY_62
*1663 PHY_63
*1664 PHY_64