*SPEF "ieee 1481-1999"
*DESIGN "tt_um_algofoogle_solo_squash"
*DATE "11:11:11 Fri 11 11, 1111"
*VENDOR "OpenRCX"
*PROGRAM "Parallel Extraction"
*VERSION "1.0"
*DESIGN_FLOW "NAME_SCOPE LOCAL" "PIN_CAP NONE"
*DIVIDER /
*DELIMITER :
*BUS_DELIMITER []
*T_UNIT 1 NS
*C_UNIT 1 PF
*R_UNIT 1 OHM
*L_UNIT 1 HENRY

*NAME_MAP
*1 clk
*2 ena
*3 rst_n
*4 ui_in[0]
*5 ui_in[1]
*6 ui_in[2]
*7 ui_in[3]
*8 ui_in[4]
*9 ui_in[5]
*10 ui_in[6]
*11 ui_in[7]
*12 uio_in[0]
*13 uio_in[1]
*14 uio_in[2]
*15 uio_in[3]
*16 uio_in[4]
*17 uio_in[5]
*18 uio_in[6]
*19 uio_in[7]
*20 net7
*21 net8
*22 net9
*23 net10
*24 net11
*25 net12
*26 net13
*27 net14
*28 uio_out[0]
*29 uio_out[1]
*30 uio_out[2]
*31 uio_out[3]
*32 uio_out[4]
*33 uio_out[5]
*34 uio_out[6]
*35 uio_out[7]
*36 uo_out[0]
*37 uo_out[1]
*38 uo_out[2]
*39 uo_out[3]
*40 uo_out[4]
*41 uo_out[5]
*42 uo_out[6]
*43 uo_out[7]
*46 _0000_
*47 _0001_
*48 _0002_
*49 _0003_
*50 _0004_
*51 _0005_
*52 _0006_
*53 _0007_
*54 _0008_
*55 _0009_
*56 _0010_
*57 _0011_
*58 _0012_
*59 _0013_
*60 _0014_
*61 _0015_
*62 _0016_
*63 _0017_
*64 _0018_
*65 _0019_
*66 _0020_
*67 _0021_
*68 _0022_
*69 _0023_
*70 _0024_
*71 _0025_
*72 _0026_
*73 _0027_
*74 _0028_
*75 _0029_
*76 _0030_
*77 _0031_
*78 _0032_
*79 _0033_
*80 _0034_
*81 _0035_
*82 _0036_
*83 _0037_
*84 _0038_
*85 _0039_
*86 _0040_
*87 _0041_
*88 _0042_
*89 _0043_
*90 _0044_
*91 _0045_
*92 _0046_
*93 _0047_
*94 _0048_
*95 _0049_
*96 _0050_
*97 _0051_
*98 _0052_
*99 _0053_
*100 _0054_
*101 _0055_
*102 _0056_
*103 _0057_
*104 _0058_
*105 _0059_
*106 _0060_
*107 _0061_
*108 _0062_
*109 _0063_
*110 _0064_
*111 _0065_
*112 _0066_
*113 _0067_
*114 _0068_
*115 _0069_
*116 _0070_
*117 _0071_
*118 _0072_
*119 _0073_
*120 _0074_
*121 _0075_
*122 _0076_
*123 _0077_
*124 _0078_
*125 _0079_
*126 _0080_
*127 _0081_
*128 _0082_
*129 _0083_
*130 _0084_
*131 _0085_
*132 _0086_
*133 _0087_
*134 _0088_
*135 _0089_
*136 _0090_
*137 _0091_
*138 _0092_
*139 _0093_
*140 _0094_
*141 _0095_
*142 _0096_
*143 _0097_
*144 _0098_
*145 _0099_
*146 _0100_
*147 _0101_
*148 _0102_
*149 _0103_
*150 _0104_
*151 _0105_
*152 _0106_
*153 _0107_
*154 _0108_
*155 _0109_
*156 _0110_
*157 _0111_
*158 _0112_
*159 _0113_
*160 _0114_
*161 _0115_
*162 _0116_
*163 _0117_
*164 _0118_
*165 _0119_
*166 _0120_
*167 _0121_
*168 _0122_
*169 _0123_
*170 _0124_
*171 _0125_
*172 _0126_
*173 _0127_
*174 _0128_
*175 _0129_
*176 _0130_
*177 _0131_
*178 _0132_
*179 _0133_
*180 _0134_
*181 _0135_
*182 _0136_
*183 _0137_
*184 _0138_
*185 _0139_
*186 _0140_
*187 _0141_
*188 _0142_
*189 _0143_
*190 _0144_
*191 _0145_
*192 _0146_
*193 _0147_
*194 _0148_
*195 _0149_
*196 _0150_
*197 _0151_
*198 _0152_
*199 _0153_
*200 _0154_
*201 _0155_
*202 _0156_
*203 _0157_
*204 _0158_
*205 _0159_
*206 _0160_
*207 _0161_
*208 _0162_
*209 _0163_
*210 _0164_
*211 _0165_
*212 _0166_
*213 _0167_
*214 _0168_
*215 _0169_
*216 _0170_
*217 _0171_
*218 _0172_
*219 _0173_
*220 _0174_
*221 _0175_
*222 _0176_
*223 _0177_
*224 _0178_
*225 _0179_
*226 _0180_
*227 _0181_
*228 _0182_
*229 _0183_
*230 _0184_
*231 _0185_
*232 _0186_
*233 _0187_
*234 _0188_
*235 _0189_
*236 _0190_
*237 _0191_
*238 _0192_
*239 _0193_
*240 _0194_
*241 _0195_
*242 _0196_
*243 _0197_
*244 _0198_
*245 _0199_
*246 _0200_
*247 _0201_
*248 _0202_
*249 _0203_
*250 _0204_
*251 _0205_
*252 _0206_
*253 _0207_
*254 _0208_
*255 _0209_
*256 _0210_
*257 _0211_
*258 _0212_
*259 _0213_
*260 _0214_
*261 _0215_
*262 _0216_
*263 _0217_
*264 _0218_
*265 _0219_
*266 _0220_
*267 _0221_
*268 _0222_
*269 _0223_
*270 _0224_
*271 _0225_
*272 _0226_
*273 _0227_
*274 _0228_
*275 _0229_
*276 _0230_
*277 _0231_
*278 _0232_
*279 _0233_
*280 _0234_
*281 _0235_
*282 _0236_
*283 _0237_
*284 _0238_
*285 _0239_
*286 _0240_
*287 _0241_
*288 _0242_
*289 _0243_
*290 _0244_
*291 _0245_
*292 _0246_
*293 _0247_
*294 _0248_
*295 _0249_
*296 _0250_
*297 _0251_
*298 _0252_
*299 _0253_
*300 _0254_
*301 _0255_
*302 _0256_
*303 _0257_
*304 _0258_
*305 _0259_
*306 _0260_
*307 _0261_
*308 _0262_
*309 _0263_
*310 _0264_
*311 _0265_
*312 _0266_
*313 _0267_
*314 _0268_
*315 _0269_
*316 _0270_
*317 _0271_
*318 _0272_
*319 _0273_
*320 _0274_
*321 _0275_
*322 _0276_
*323 _0277_
*324 _0278_
*325 _0279_
*326 _0280_
*327 _0281_
*328 _0282_
*329 _0283_
*330 _0284_
*331 _0285_
*332 _0286_
*333 _0287_
*334 _0288_
*335 _0289_
*336 _0290_
*337 _0291_
*338 _0292_
*339 _0293_
*340 _0294_
*341 _0295_
*342 _0296_
*343 _0297_
*344 _0298_
*345 _0299_
*346 _0300_
*347 _0301_
*348 _0302_
*349 _0303_
*350 _0304_
*351 _0305_
*352 _0306_
*353 _0307_
*354 _0308_
*355 _0309_
*356 _0310_
*357 _0311_
*358 _0312_
*359 _0313_
*360 _0314_
*361 _0315_
*362 _0316_
*363 _0317_
*364 _0318_
*365 _0319_
*366 _0320_
*367 _0321_
*368 _0322_
*369 _0323_
*370 _0324_
*371 _0325_
*372 _0326_
*373 _0327_
*374 _0328_
*375 _0329_
*376 _0330_
*377 _0331_
*378 _0332_
*379 _0333_
*380 _0334_
*381 _0335_
*382 _0336_
*383 _0337_
*384 _0338_
*385 _0339_
*386 _0340_
*387 _0341_
*388 _0342_
*389 _0343_
*390 _0344_
*391 _0345_
*392 _0346_
*393 _0347_
*394 _0348_
*395 _0349_
*396 _0350_
*397 _0351_
*398 _0352_
*399 _0353_
*400 _0354_
*401 _0355_
*402 _0356_
*403 _0357_
*404 _0358_
*405 _0359_
*406 _0360_
*407 _0361_
*408 _0362_
*409 _0363_
*410 _0364_
*411 _0365_
*412 _0366_
*413 _0367_
*414 _0368_
*415 _0369_
*416 _0370_
*417 _0371_
*418 _0372_
*419 _0373_
*420 _0374_
*421 _0375_
*422 _0376_
*423 _0377_
*424 _0378_
*425 _0379_
*426 _0380_
*427 _0381_
*428 _0382_
*429 _0383_
*430 _0384_
*431 _0385_
*432 _0386_
*433 _0387_
*434 _0388_
*435 _0389_
*436 _0390_
*437 _0391_
*438 _0392_
*439 _0393_
*440 _0394_
*441 _0395_
*442 _0396_
*443 _0397_
*444 _0398_
*445 _0399_
*446 _0400_
*447 _0401_
*448 _0402_
*449 _0403_
*450 _0404_
*451 _0405_
*452 _0406_
*453 _0407_
*454 _0408_
*455 _0409_
*456 _0410_
*457 _0411_
*458 _0412_
*459 _0413_
*460 _0414_
*461 _0415_
*462 _0416_
*463 _0417_
*464 _0418_
*465 _0419_
*466 _0420_
*467 _0421_
*468 _0422_
*469 _0423_
*470 _0424_
*471 _0425_
*472 _0426_
*473 _0427_
*474 _0428_
*475 _0429_
*476 _0430_
*477 _0431_
*478 _0432_
*479 _0433_
*480 _0434_
*481 _0435_
*482 _0436_
*483 _0437_
*484 _0438_
*485 _0439_
*486 _0440_
*487 _0441_
*488 _0442_
*489 _0443_
*490 _0444_
*491 _0445_
*492 _0446_
*493 _0447_
*494 _0448_
*495 _0449_
*496 _0450_
*497 _0451_
*498 _0452_
*499 _0453_
*500 _0454_
*501 _0455_
*502 _0456_
*503 _0457_
*504 _0458_
*505 _0459_
*506 _0460_
*507 _0461_
*508 _0462_
*509 _0463_
*510 _0464_
*511 _0465_
*512 _0466_
*513 _0467_
*514 _0468_
*515 _0469_
*516 _0470_
*517 _0471_
*518 _0472_
*519 _0473_
*520 _0474_
*521 _0475_
*522 _0476_
*523 _0477_
*524 _0478_
*525 _0479_
*526 _0480_
*527 _0481_
*528 _0482_
*529 _0483_
*530 _0484_
*531 _0485_
*532 _0486_
*533 _0487_
*534 _0488_
*535 _0489_
*536 _0490_
*537 _0491_
*538 _0492_
*539 _0493_
*540 _0494_
*541 _0495_
*542 _0496_
*543 _0497_
*544 _0498_
*545 _0499_
*546 _0500_
*547 _0501_
*548 clknet_0_clk
*549 clknet_3_0__leaf_clk
*550 clknet_3_1__leaf_clk
*551 clknet_3_2__leaf_clk
*552 clknet_3_3__leaf_clk
*553 clknet_3_4__leaf_clk
*554 clknet_3_5__leaf_clk
*555 clknet_3_6__leaf_clk
*556 clknet_3_7__leaf_clk
*557 down_key\.d
*558 down_key\.dff1
*559 down_key\.dff2
*560 game\.ballDirX
*561 game\.ballDirY
*562 game\.ballX\[0\]
*563 game\.ballX\[1\]
*564 game\.ballX\[2\]
*565 game\.ballX\[3\]
*566 game\.ballX\[4\]
*567 game\.ballX\[5\]
*568 game\.ballX\[6\]
*569 game\.ballX\[7\]
*570 game\.ballX\[8\]
*571 game\.ballY\[0\]
*572 game\.ballY\[1\]
*573 game\.ballY\[2\]
*574 game\.ballY\[3\]
*575 game\.ballY\[4\]
*576 game\.ballY\[5\]
*577 game\.ballY\[6\]
*578 game\.ballY\[7\]
*579 game\.blue
*580 game\.col0
*581 game\.green
*582 game\.h\[0\]
*583 game\.h\[1\]
*584 game\.h\[2\]
*585 game\.h\[3\]
*586 game\.h\[4\]
*587 game\.h\[5\]
*588 game\.h\[6\]
*589 game\.h\[7\]
*590 game\.h\[8\]
*591 game\.h\[9\]
*592 game\.hit
*593 game\.hsync
*594 game\.inBallX
*595 game\.inBallY
*596 game\.inPaddle
*597 game\.new_game_n
*598 game\.offset\[0\]
*599 game\.offset\[1\]
*600 game\.offset\[2\]
*601 game\.offset\[3\]
*602 game\.offset\[4\]
*603 game\.paddle\[0\]
*604 game\.paddle\[1\]
*605 game\.paddle\[2\]
*606 game\.paddle\[3\]
*607 game\.paddle\[4\]
*608 game\.paddle\[5\]
*609 game\.paddle\[6\]
*610 game\.paddle\[7\]
*611 game\.paddle\[8\]
*612 game\.pause_n
*613 game\.red
*614 game\.row0
*615 game\.speaker
*616 game\.up_key_n
*617 game\.v\[0\]
*618 game\.v\[1\]
*619 game\.v\[2\]
*620 game\.v\[3\]
*621 game\.v\[4\]
*622 game\.v\[5\]
*623 game\.v\[6\]
*624 game\.v\[7\]
*625 game\.v\[8\]
*626 game\.v\[9\]
*627 game\.vsync
*628 lzc\.a
*629 net1
*630 net15
*631 net16
*632 net17
*633 net18
*634 net2
*635 net3
*636 net4
*637 net5
*638 net6
*639 new_game\.d
*640 new_game\.dff1
*641 pause\.d
*642 pause\.dff1
*643 qb
*644 qg
*645 qr
*646 up_key\.d
*647 up_key\.dff1
*648 FILLER_0_109
*649 FILLER_0_113
*650 FILLER_0_125
*651 FILLER_0_137
*652 FILLER_0_141
*653 FILLER_0_15
*654 FILLER_0_153
*655 FILLER_0_165
*656 FILLER_0_169
*657 FILLER_0_181
*658 FILLER_0_193
*659 FILLER_0_197
*660 FILLER_0_209
*661 FILLER_0_221
*662 FILLER_0_225
*663 FILLER_0_237
*664 FILLER_0_249
*665 FILLER_0_253
*666 FILLER_0_265
*667 FILLER_0_27
*668 FILLER_0_277
*669 FILLER_0_281
*670 FILLER_0_29
*671 FILLER_0_293
*672 FILLER_0_3
*673 FILLER_0_305
*674 FILLER_0_309
*675 FILLER_0_321
*676 FILLER_0_333
*677 FILLER_0_337
*678 FILLER_0_41
*679 FILLER_0_53
*680 FILLER_0_57
*681 FILLER_0_69
*682 FILLER_0_81
*683 FILLER_0_85
*684 FILLER_0_97
*685 FILLER_10_102
*686 FILLER_10_114
*687 FILLER_10_125
*688 FILLER_10_136
*689 FILLER_10_141
*690 FILLER_10_149
*691 FILLER_10_167
*692 FILLER_10_178
*693 FILLER_10_185
*694 FILLER_10_193
*695 FILLER_10_197
*696 FILLER_10_203
*697 FILLER_10_209
*698 FILLER_10_217
*699 FILLER_10_22
*700 FILLER_10_227
*701 FILLER_10_236
*702 FILLER_10_242
*703 FILLER_10_248
*704 FILLER_10_253
*705 FILLER_10_265
*706 FILLER_10_277
*707 FILLER_10_289
*708 FILLER_10_29
*709 FILLER_10_3
*710 FILLER_10_301
*711 FILLER_10_307
*712 FILLER_10_309
*713 FILLER_10_321
*714 FILLER_10_333
*715 FILLER_10_337
*716 FILLER_10_35
*717 FILLER_10_46
*718 FILLER_10_54
*719 FILLER_10_58
*720 FILLER_10_62
*721 FILLER_10_73
*722 FILLER_10_82
*723 FILLER_10_85
*724 FILLER_10_95
*725 FILLER_11_101
*726 FILLER_11_109
*727 FILLER_11_11
*728 FILLER_11_113
*729 FILLER_11_119
*730 FILLER_11_128
*731 FILLER_11_134
*732 FILLER_11_142
*733 FILLER_11_15
*734 FILLER_11_150
*735 FILLER_11_156
*736 FILLER_11_166
*737 FILLER_11_169
*738 FILLER_11_183
*739 FILLER_11_195
*740 FILLER_11_203
*741 FILLER_11_210
*742 FILLER_11_220
*743 FILLER_11_225
*744 FILLER_11_236
*745 FILLER_11_248
*746 FILLER_11_258
*747 FILLER_11_26
*748 FILLER_11_266
*749 FILLER_11_278
*750 FILLER_11_281
*751 FILLER_11_293
*752 FILLER_11_3
*753 FILLER_11_305
*754 FILLER_11_317
*755 FILLER_11_329
*756 FILLER_11_335
*757 FILLER_11_337
*758 FILLER_11_37
*759 FILLER_11_45
*760 FILLER_11_54
*761 FILLER_11_57
*762 FILLER_11_64
*763 FILLER_11_72
*764 FILLER_11_82
*765 FILLER_11_92
*766 FILLER_12_100
*767 FILLER_12_108
*768 FILLER_12_112
*769 FILLER_12_132
*770 FILLER_12_141
*771 FILLER_12_15
*772 FILLER_12_161
*773 FILLER_12_173
*774 FILLER_12_180
*775 FILLER_12_192
*776 FILLER_12_197
*777 FILLER_12_205
*778 FILLER_12_209
*779 FILLER_12_21
*780 FILLER_12_214
*781 FILLER_12_221
*782 FILLER_12_233
*783 FILLER_12_239
*784 FILLER_12_248
*785 FILLER_12_253
*786 FILLER_12_258
*787 FILLER_12_265
*788 FILLER_12_27
*789 FILLER_12_277
*790 FILLER_12_282
*791 FILLER_12_29
*792 FILLER_12_293
*793 FILLER_12_3
*794 FILLER_12_305
*795 FILLER_12_309
*796 FILLER_12_321
*797 FILLER_12_333
*798 FILLER_12_337
*799 FILLER_12_53
*800 FILLER_12_62
*801 FILLER_12_82
*802 FILLER_12_85
*803 FILLER_12_92
*804 FILLER_13_10
*805 FILLER_13_108
*806 FILLER_13_113
*807 FILLER_13_119
*808 FILLER_13_123
*809 FILLER_13_127
*810 FILLER_13_131
*811 FILLER_13_135
*812 FILLER_13_144
*813 FILLER_13_166
*814 FILLER_13_169
*815 FILLER_13_192
*816 FILLER_13_21
*817 FILLER_13_220
*818 FILLER_13_225
*819 FILLER_13_247
*820 FILLER_13_254
*821 FILLER_13_260
*822 FILLER_13_278
*823 FILLER_13_281
*824 FILLER_13_3
*825 FILLER_13_300
*826 FILLER_13_308
*827 FILLER_13_31
*828 FILLER_13_326
*829 FILLER_13_334
*830 FILLER_13_337
*831 FILLER_13_43
*832 FILLER_13_54
*833 FILLER_13_57
*834 FILLER_13_63
*835 FILLER_13_75
*836 FILLER_13_84
*837 FILLER_13_92
*838 FILLER_13_96
*839 FILLER_14_120
*840 FILLER_14_124
*841 FILLER_14_130
*842 FILLER_14_134
*843 FILLER_14_138
*844 FILLER_14_141
*845 FILLER_14_15
*846 FILLER_14_161
*847 FILLER_14_168
*848 FILLER_14_180
*849 FILLER_14_188
*850 FILLER_14_194
*851 FILLER_14_197
*852 FILLER_14_215
*853 FILLER_14_223
*854 FILLER_14_245
*855 FILLER_14_251
*856 FILLER_14_253
*857 FILLER_14_26
*858 FILLER_14_260
*859 FILLER_14_273
*860 FILLER_14_284
*861 FILLER_14_29
*862 FILLER_14_297
*863 FILLER_14_3
*864 FILLER_14_304
*865 FILLER_14_309
*866 FILLER_14_314
*867 FILLER_14_321
*868 FILLER_14_333
*869 FILLER_14_337
*870 FILLER_14_36
*871 FILLER_14_44
*872 FILLER_14_52
*873 FILLER_14_58
*874 FILLER_14_64
*875 FILLER_14_75
*876 FILLER_14_82
*877 FILLER_14_85
*878 FILLER_14_98
*879 FILLER_15_10
*880 FILLER_15_106
*881 FILLER_15_113
*882 FILLER_15_121
*883 FILLER_15_145
*884 FILLER_15_155
*885 FILLER_15_166
*886 FILLER_15_169
*887 FILLER_15_181
*888 FILLER_15_191
*889 FILLER_15_201
*890 FILLER_15_209
*891 FILLER_15_21
*892 FILLER_15_217
*893 FILLER_15_223
*894 FILLER_15_225
*895 FILLER_15_230
*896 FILLER_15_250
*897 FILLER_15_258
*898 FILLER_15_268
*899 FILLER_15_272
*900 FILLER_15_278
*901 FILLER_15_281
*902 FILLER_15_29
*903 FILLER_15_292
*904 FILLER_15_3
*905 FILLER_15_303
*906 FILLER_15_311
*907 FILLER_15_333
*908 FILLER_15_337
*909 FILLER_15_40
*910 FILLER_15_48
*911 FILLER_15_54
*912 FILLER_15_57
*913 FILLER_15_80
*914 FILLER_15_88
*915 FILLER_15_94
*916 FILLER_16_104
*917 FILLER_16_124
*918 FILLER_16_13
*919 FILLER_16_132
*920 FILLER_16_141
*921 FILLER_16_148
*922 FILLER_16_158
*923 FILLER_16_164
*924 FILLER_16_172
*925 FILLER_16_181
*926 FILLER_16_194
*927 FILLER_16_197
*928 FILLER_16_206
*929 FILLER_16_234
*930 FILLER_16_243
*931 FILLER_16_250
*932 FILLER_16_253
*933 FILLER_16_257
*934 FILLER_16_26
*935 FILLER_16_266
*936 FILLER_16_277
*937 FILLER_16_29
*938 FILLER_16_290
*939 FILLER_16_3
*940 FILLER_16_301
*941 FILLER_16_307
*942 FILLER_16_309
*943 FILLER_16_319
*944 FILLER_16_329
*945 FILLER_16_336
*946 FILLER_16_37
*947 FILLER_16_55
*948 FILLER_16_76
*949 FILLER_16_85
*950 FILLER_16_9
*951 FILLER_17_102
*952 FILLER_17_11
*953 FILLER_17_110
*954 FILLER_17_113
*955 FILLER_17_118
*956 FILLER_17_126
*957 FILLER_17_149
*958 FILLER_17_161
*959 FILLER_17_167
*960 FILLER_17_169
*961 FILLER_17_17
*962 FILLER_17_178
*963 FILLER_17_184
*964 FILLER_17_192
*965 FILLER_17_204
*966 FILLER_17_215
*967 FILLER_17_223
*968 FILLER_17_225
*969 FILLER_17_235
*970 FILLER_17_241
*971 FILLER_17_262
*972 FILLER_17_273
*973 FILLER_17_279
*974 FILLER_17_28
*975 FILLER_17_281
*976 FILLER_17_292
*977 FILLER_17_298
*978 FILLER_17_3
*979 FILLER_17_306
*980 FILLER_17_315
*981 FILLER_17_323
*982 FILLER_17_331
*983 FILLER_17_335
*984 FILLER_17_337
*985 FILLER_17_40
*986 FILLER_17_47
*987 FILLER_17_54
*988 FILLER_17_57
*989 FILLER_17_69
*990 FILLER_17_93
*991 FILLER_18_100
*992 FILLER_18_104
*993 FILLER_18_116
*994 FILLER_18_128
*995 FILLER_18_141
*996 FILLER_18_149
*997 FILLER_18_160
*998 FILLER_18_168
*999 FILLER_18_174
*1000 FILLER_18_186
*1001 FILLER_18_194
*1002 FILLER_18_197
*1003 FILLER_18_209
*1004 FILLER_18_22
*1005 FILLER_18_220
*1006 FILLER_18_232
*1007 FILLER_18_240
*1008 FILLER_18_249
*1009 FILLER_18_253
*1010 FILLER_18_262
*1011 FILLER_18_266
*1012 FILLER_18_272
*1013 FILLER_18_280
*1014 FILLER_18_29
*1015 FILLER_18_295
*1016 FILLER_18_299
*1017 FILLER_18_3
*1018 FILLER_18_306
*1019 FILLER_18_309
*1020 FILLER_18_317
*1021 FILLER_18_321
*1022 FILLER_18_329
*1023 FILLER_18_337
*1024 FILLER_18_35
*1025 FILLER_18_44
*1026 FILLER_18_53
*1027 FILLER_18_64
*1028 FILLER_18_74
*1029 FILLER_18_78
*1030 FILLER_18_82
*1031 FILLER_18_85
*1032 FILLER_18_96
*1033 FILLER_19_110
*1034 FILLER_19_113
*1035 FILLER_19_125
*1036 FILLER_19_133
*1037 FILLER_19_137
*1038 FILLER_19_148
*1039 FILLER_19_15
*1040 FILLER_19_156
*1041 FILLER_19_160
*1042 FILLER_19_166
*1043 FILLER_19_169
*1044 FILLER_19_174
*1045 FILLER_19_186
*1046 FILLER_19_196
*1047 FILLER_19_208
*1048 FILLER_19_220
*1049 FILLER_19_225
*1050 FILLER_19_234
*1051 FILLER_19_242
*1052 FILLER_19_247
*1053 FILLER_19_259
*1054 FILLER_19_26
*1055 FILLER_19_271
*1056 FILLER_19_277
*1057 FILLER_19_281
*1058 FILLER_19_287
*1059 FILLER_19_295
*1060 FILLER_19_299
*1061 FILLER_19_3
*1062 FILLER_19_308
*1063 FILLER_19_315
*1064 FILLER_19_326
*1065 FILLER_19_334
*1066 FILLER_19_337
*1067 FILLER_19_54
*1068 FILLER_19_57
*1069 FILLER_19_65
*1070 FILLER_19_77
*1071 FILLER_19_89
*1072 FILLER_1_105
*1073 FILLER_1_111
*1074 FILLER_1_113
*1075 FILLER_1_125
*1076 FILLER_1_137
*1077 FILLER_1_149
*1078 FILLER_1_15
*1079 FILLER_1_161
*1080 FILLER_1_167
*1081 FILLER_1_169
*1082 FILLER_1_181
*1083 FILLER_1_193
*1084 FILLER_1_205
*1085 FILLER_1_217
*1086 FILLER_1_223
*1087 FILLER_1_225
*1088 FILLER_1_237
*1089 FILLER_1_249
*1090 FILLER_1_261
*1091 FILLER_1_27
*1092 FILLER_1_273
*1093 FILLER_1_279
*1094 FILLER_1_281
*1095 FILLER_1_293
*1096 FILLER_1_3
*1097 FILLER_1_305
*1098 FILLER_1_317
*1099 FILLER_1_329
*1100 FILLER_1_335
*1101 FILLER_1_337
*1102 FILLER_1_39
*1103 FILLER_1_51
*1104 FILLER_1_55
*1105 FILLER_1_57
*1106 FILLER_1_69
*1107 FILLER_1_81
*1108 FILLER_1_93
*1109 FILLER_20_11
*1110 FILLER_20_115
*1111 FILLER_20_125
*1112 FILLER_20_138
*1113 FILLER_20_141
*1114 FILLER_20_150
*1115 FILLER_20_159
*1116 FILLER_20_171
*1117 FILLER_20_180
*1118 FILLER_20_190
*1119 FILLER_20_197
*1120 FILLER_20_209
*1121 FILLER_20_21
*1122 FILLER_20_215
*1123 FILLER_20_223
*1124 FILLER_20_236
*1125 FILLER_20_243
*1126 FILLER_20_251
*1127 FILLER_20_253
*1128 FILLER_20_262
*1129 FILLER_20_27
*1130 FILLER_20_275
*1131 FILLER_20_287
*1132 FILLER_20_29
*1133 FILLER_20_298
*1134 FILLER_20_3
*1135 FILLER_20_306
*1136 FILLER_20_309
*1137 FILLER_20_318
*1138 FILLER_20_325
*1139 FILLER_20_337
*1140 FILLER_20_35
*1141 FILLER_20_47
*1142 FILLER_20_60
*1143 FILLER_20_67
*1144 FILLER_20_79
*1145 FILLER_20_83
*1146 FILLER_20_85
*1147 FILLER_20_94
*1148 FILLER_21_105
*1149 FILLER_21_11
*1150 FILLER_21_111
*1151 FILLER_21_113
*1152 FILLER_21_125
*1153 FILLER_21_147
*1154 FILLER_21_15
*1155 FILLER_21_159
*1156 FILLER_21_167
*1157 FILLER_21_169
*1158 FILLER_21_181
*1159 FILLER_21_203
*1160 FILLER_21_215
*1161 FILLER_21_222
*1162 FILLER_21_225
*1163 FILLER_21_236
*1164 FILLER_21_248
*1165 FILLER_21_257
*1166 FILLER_21_265
*1167 FILLER_21_27
*1168 FILLER_21_275
*1169 FILLER_21_279
*1170 FILLER_21_281
*1171 FILLER_21_289
*1172 FILLER_21_3
*1173 FILLER_21_300
*1174 FILLER_21_313
*1175 FILLER_21_334
*1176 FILLER_21_337
*1177 FILLER_21_36
*1178 FILLER_21_43
*1179 FILLER_21_54
*1180 FILLER_21_57
*1181 FILLER_21_77
*1182 FILLER_21_94
*1183 FILLER_22_106
*1184 FILLER_22_114
*1185 FILLER_22_121
*1186 FILLER_22_127
*1187 FILLER_22_13
*1188 FILLER_22_131
*1189 FILLER_22_138
*1190 FILLER_22_141
*1191 FILLER_22_150
*1192 FILLER_22_157
*1193 FILLER_22_169
*1194 FILLER_22_194
*1195 FILLER_22_197
*1196 FILLER_22_203
*1197 FILLER_22_211
*1198 FILLER_22_222
*1199 FILLER_22_234
*1200 FILLER_22_245
*1201 FILLER_22_251
*1202 FILLER_22_253
*1203 FILLER_22_258
*1204 FILLER_22_26
*1205 FILLER_22_274
*1206 FILLER_22_281
*1207 FILLER_22_29
*1208 FILLER_22_291
*1209 FILLER_22_298
*1210 FILLER_22_3
*1211 FILLER_22_306
*1212 FILLER_22_309
*1213 FILLER_22_318
*1214 FILLER_22_330
*1215 FILLER_22_36
*1216 FILLER_22_40
*1217 FILLER_22_49
*1218 FILLER_22_61
*1219 FILLER_22_72
*1220 FILLER_22_85
*1221 FILLER_22_9
*1222 FILLER_22_95
*1223 FILLER_23_10
*1224 FILLER_23_104
*1225 FILLER_23_113
*1226 FILLER_23_118
*1227 FILLER_23_130
*1228 FILLER_23_136
*1229 FILLER_23_144
*1230 FILLER_23_155
*1231 FILLER_23_165
*1232 FILLER_23_169
*1233 FILLER_23_175
*1234 FILLER_23_179
*1235 FILLER_23_19
*1236 FILLER_23_203
*1237 FILLER_23_215
*1238 FILLER_23_223
*1239 FILLER_23_225
*1240 FILLER_23_235
*1241 FILLER_23_242
*1242 FILLER_23_250
*1243 FILLER_23_255
*1244 FILLER_23_261
*1245 FILLER_23_270
*1246 FILLER_23_277
*1247 FILLER_23_281
*1248 FILLER_23_3
*1249 FILLER_23_305
*1250 FILLER_23_31
*1251 FILLER_23_313
*1252 FILLER_23_322
*1253 FILLER_23_329
*1254 FILLER_23_335
*1255 FILLER_23_337
*1256 FILLER_23_42
*1257 FILLER_23_48
*1258 FILLER_23_54
*1259 FILLER_23_57
*1260 FILLER_23_65
*1261 FILLER_23_79
*1262 FILLER_23_87
*1263 FILLER_24_11
*1264 FILLER_24_118
*1265 FILLER_24_122
*1266 FILLER_24_127
*1267 FILLER_24_136
*1268 FILLER_24_141
*1269 FILLER_24_159
*1270 FILLER_24_167
*1271 FILLER_24_188
*1272 FILLER_24_197
*1273 FILLER_24_21
*1274 FILLER_24_219
*1275 FILLER_24_227
*1276 FILLER_24_246
*1277 FILLER_24_253
*1278 FILLER_24_262
*1279 FILLER_24_27
*1280 FILLER_24_274
*1281 FILLER_24_282
*1282 FILLER_24_29
*1283 FILLER_24_290
*1284 FILLER_24_296
*1285 FILLER_24_3
*1286 FILLER_24_303
*1287 FILLER_24_307
*1288 FILLER_24_309
*1289 FILLER_24_328
*1290 FILLER_24_336
*1291 FILLER_24_36
*1292 FILLER_24_48
*1293 FILLER_24_56
*1294 FILLER_24_62
*1295 FILLER_24_75
*1296 FILLER_24_82
*1297 FILLER_24_85
*1298 FILLER_24_97
*1299 FILLER_25_105
*1300 FILLER_25_11
*1301 FILLER_25_111
*1302 FILLER_25_113
*1303 FILLER_25_125
*1304 FILLER_25_148
*1305 FILLER_25_158
*1306 FILLER_25_166
*1307 FILLER_25_169
*1308 FILLER_25_175
*1309 FILLER_25_185
*1310 FILLER_25_196
*1311 FILLER_25_20
*1312 FILLER_25_206
*1313 FILLER_25_215
*1314 FILLER_25_223
*1315 FILLER_25_225
*1316 FILLER_25_241
*1317 FILLER_25_251
*1318 FILLER_25_261
*1319 FILLER_25_273
*1320 FILLER_25_279
*1321 FILLER_25_281
*1322 FILLER_25_288
*1323 FILLER_25_297
*1324 FILLER_25_3
*1325 FILLER_25_305
*1326 FILLER_25_31
*1327 FILLER_25_313
*1328 FILLER_25_333
*1329 FILLER_25_337
*1330 FILLER_25_43
*1331 FILLER_25_55
*1332 FILLER_25_57
*1333 FILLER_25_67
*1334 FILLER_25_78
*1335 FILLER_25_86
*1336 FILLER_25_94
*1337 FILLER_26_105
*1338 FILLER_26_114
*1339 FILLER_26_118
*1340 FILLER_26_127
*1341 FILLER_26_138
*1342 FILLER_26_141
*1343 FILLER_26_153
*1344 FILLER_26_162
*1345 FILLER_26_170
*1346 FILLER_26_175
*1347 FILLER_26_184
*1348 FILLER_26_188
*1349 FILLER_26_19
*1350 FILLER_26_194
*1351 FILLER_26_197
*1352 FILLER_26_205
*1353 FILLER_26_212
*1354 FILLER_26_220
*1355 FILLER_26_232
*1356 FILLER_26_247
*1357 FILLER_26_251
*1358 FILLER_26_253
*1359 FILLER_26_259
*1360 FILLER_26_26
*1361 FILLER_26_267
*1362 FILLER_26_29
*1363 FILLER_26_291
*1364 FILLER_26_3
*1365 FILLER_26_302
*1366 FILLER_26_309
*1367 FILLER_26_314
*1368 FILLER_26_321
*1369 FILLER_26_328
*1370 FILLER_26_336
*1371 FILLER_26_41
*1372 FILLER_26_70
*1373 FILLER_26_78
*1374 FILLER_26_8
*1375 FILLER_26_85
*1376 FILLER_27_104
*1377 FILLER_27_113
*1378 FILLER_27_121
*1379 FILLER_27_14
*1380 FILLER_27_149
*1381 FILLER_27_159
*1382 FILLER_27_166
*1383 FILLER_27_169
*1384 FILLER_27_177
*1385 FILLER_27_185
*1386 FILLER_27_193
*1387 FILLER_27_201
*1388 FILLER_27_209
*1389 FILLER_27_216
*1390 FILLER_27_22
*1391 FILLER_27_225
*1392 FILLER_27_231
*1393 FILLER_27_239
*1394 FILLER_27_249
*1395 FILLER_27_257
*1396 FILLER_27_265
*1397 FILLER_27_278
*1398 FILLER_27_281
*1399 FILLER_27_290
*1400 FILLER_27_294
*1401 FILLER_27_299
*1402 FILLER_27_3
*1403 FILLER_27_30
*1404 FILLER_27_306
*1405 FILLER_27_310
*1406 FILLER_27_327
*1407 FILLER_27_334
*1408 FILLER_27_337
*1409 FILLER_27_37
*1410 FILLER_27_41
*1411 FILLER_27_46
*1412 FILLER_27_54
*1413 FILLER_27_57
*1414 FILLER_27_65
*1415 FILLER_27_8
*1416 FILLER_27_93
*1417 FILLER_28_107
*1418 FILLER_28_115
*1419 FILLER_28_120
*1420 FILLER_28_132
*1421 FILLER_28_14
*1422 FILLER_28_141
*1423 FILLER_28_145
*1424 FILLER_28_152
*1425 FILLER_28_162
*1426 FILLER_28_170
*1427 FILLER_28_181
*1428 FILLER_28_193
*1429 FILLER_28_197
*1430 FILLER_28_208
*1431 FILLER_28_221
*1432 FILLER_28_243
*1433 FILLER_28_25
*1434 FILLER_28_250
*1435 FILLER_28_253
*1436 FILLER_28_261
*1437 FILLER_28_269
*1438 FILLER_28_29
*1439 FILLER_28_291
*1440 FILLER_28_3
*1441 FILLER_28_302
*1442 FILLER_28_309
*1443 FILLER_28_327
*1444 FILLER_28_335
*1445 FILLER_28_48
*1446 FILLER_28_68
*1447 FILLER_28_76
*1448 FILLER_28_82
*1449 FILLER_28_85
*1450 FILLER_28_89
*1451 FILLER_28_9
*1452 FILLER_28_97
*1453 FILLER_29_102
*1454 FILLER_29_109
*1455 FILLER_29_113
*1456 FILLER_29_118
*1457 FILLER_29_129
*1458 FILLER_29_140
*1459 FILLER_29_155
*1460 FILLER_29_16
*1461 FILLER_29_166
*1462 FILLER_29_169
*1463 FILLER_29_177
*1464 FILLER_29_183
*1465 FILLER_29_193
*1466 FILLER_29_204
*1467 FILLER_29_214
*1468 FILLER_29_218
*1469 FILLER_29_222
*1470 FILLER_29_225
*1471 FILLER_29_230
*1472 FILLER_29_238
*1473 FILLER_29_25
*1474 FILLER_29_255
*1475 FILLER_29_266
*1476 FILLER_29_270
*1477 FILLER_29_278
*1478 FILLER_29_281
*1479 FILLER_29_285
*1480 FILLER_29_3
*1481 FILLER_29_302
*1482 FILLER_29_308
*1483 FILLER_29_31
*1484 FILLER_29_313
*1485 FILLER_29_333
*1486 FILLER_29_337
*1487 FILLER_29_48
*1488 FILLER_29_57
*1489 FILLER_29_61
*1490 FILLER_29_67
*1491 FILLER_29_75
*1492 FILLER_29_93
*1493 FILLER_2_109
*1494 FILLER_2_121
*1495 FILLER_2_133
*1496 FILLER_2_139
*1497 FILLER_2_141
*1498 FILLER_2_15
*1499 FILLER_2_153
*1500 FILLER_2_165
*1501 FILLER_2_177
*1502 FILLER_2_189
*1503 FILLER_2_195
*1504 FILLER_2_197
*1505 FILLER_2_209
*1506 FILLER_2_221
*1507 FILLER_2_233
*1508 FILLER_2_245
*1509 FILLER_2_251
*1510 FILLER_2_253
*1511 FILLER_2_265
*1512 FILLER_2_27
*1513 FILLER_2_277
*1514 FILLER_2_289
*1515 FILLER_2_29
*1516 FILLER_2_3
*1517 FILLER_2_301
*1518 FILLER_2_307
*1519 FILLER_2_309
*1520 FILLER_2_321
*1521 FILLER_2_333
*1522 FILLER_2_337
*1523 FILLER_2_41
*1524 FILLER_2_53
*1525 FILLER_2_65
*1526 FILLER_2_77
*1527 FILLER_2_83
*1528 FILLER_2_85
*1529 FILLER_2_97
*1530 FILLER_30_106
*1531 FILLER_30_116
*1532 FILLER_30_128
*1533 FILLER_30_132
*1534 FILLER_30_138
*1535 FILLER_30_141
*1536 FILLER_30_147
*1537 FILLER_30_155
*1538 FILLER_30_16
*1539 FILLER_30_168
*1540 FILLER_30_174
*1541 FILLER_30_182
*1542 FILLER_30_194
*1543 FILLER_30_197
*1544 FILLER_30_206
*1545 FILLER_30_218
*1546 FILLER_30_230
*1547 FILLER_30_238
*1548 FILLER_30_245
*1549 FILLER_30_25
*1550 FILLER_30_251
*1551 FILLER_30_253
*1552 FILLER_30_261
*1553 FILLER_30_267
*1554 FILLER_30_272
*1555 FILLER_30_29
*1556 FILLER_30_292
*1557 FILLER_30_298
*1558 FILLER_30_3
*1559 FILLER_30_302
*1560 FILLER_30_309
*1561 FILLER_30_329
*1562 FILLER_30_336
*1563 FILLER_30_37
*1564 FILLER_30_49
*1565 FILLER_30_59
*1566 FILLER_30_66
*1567 FILLER_30_75
*1568 FILLER_30_82
*1569 FILLER_30_85
*1570 FILLER_30_90
*1571 FILLER_30_97
*1572 FILLER_31_103
*1573 FILLER_31_110
*1574 FILLER_31_113
*1575 FILLER_31_127
*1576 FILLER_31_137
*1577 FILLER_31_144
*1578 FILLER_31_148
*1579 FILLER_31_153
*1580 FILLER_31_164
*1581 FILLER_31_169
*1582 FILLER_31_17
*1583 FILLER_31_181
*1584 FILLER_31_193
*1585 FILLER_31_203
*1586 FILLER_31_213
*1587 FILLER_31_221
*1588 FILLER_31_225
*1589 FILLER_31_230
*1590 FILLER_31_237
*1591 FILLER_31_245
*1592 FILLER_31_250
*1593 FILLER_31_257
*1594 FILLER_31_265
*1595 FILLER_31_276
*1596 FILLER_31_281
*1597 FILLER_31_287
*1598 FILLER_31_29
*1599 FILLER_31_291
*1600 FILLER_31_3
*1601 FILLER_31_300
*1602 FILLER_31_320
*1603 FILLER_31_332
*1604 FILLER_31_337
*1605 FILLER_31_49
*1606 FILLER_31_55
*1607 FILLER_31_57
*1608 FILLER_31_63
*1609 FILLER_31_69
*1610 FILLER_31_80
*1611 FILLER_31_88
*1612 FILLER_31_9
*1613 FILLER_31_94
*1614 FILLER_31_99
*1615 FILLER_32_103
*1616 FILLER_32_110
*1617 FILLER_32_127
*1618 FILLER_32_137
*1619 FILLER_32_14
*1620 FILLER_32_141
*1621 FILLER_32_154
*1622 FILLER_32_163
*1623 FILLER_32_170
*1624 FILLER_32_177
*1625 FILLER_32_189
*1626 FILLER_32_194
*1627 FILLER_32_197
*1628 FILLER_32_205
*1629 FILLER_32_219
*1630 FILLER_32_232
*1631 FILLER_32_240
*1632 FILLER_32_245
*1633 FILLER_32_25
*1634 FILLER_32_251
*1635 FILLER_32_253
*1636 FILLER_32_258
*1637 FILLER_32_265
*1638 FILLER_32_269
*1639 FILLER_32_277
*1640 FILLER_32_287
*1641 FILLER_32_29
*1642 FILLER_32_296
*1643 FILLER_32_3
*1644 FILLER_32_300
*1645 FILLER_32_304
*1646 FILLER_32_309
*1647 FILLER_32_328
*1648 FILLER_32_335
*1649 FILLER_32_39
*1650 FILLER_32_50
*1651 FILLER_32_57
*1652 FILLER_32_78
*1653 FILLER_32_85
*1654 FILLER_32_95
*1655 FILLER_33_100
*1656 FILLER_33_110
*1657 FILLER_33_113
*1658 FILLER_33_139
*1659 FILLER_33_15
*1660 FILLER_33_163
*1661 FILLER_33_167
*1662 FILLER_33_169
*1663 FILLER_33_175
*1664 FILLER_33_181
*1665 FILLER_33_185
*1666 FILLER_33_193
*1667 FILLER_33_205
*1668 FILLER_33_215
*1669 FILLER_33_222
*1670 FILLER_33_225
*1671 FILLER_33_234
*1672 FILLER_33_245
*1673 FILLER_33_25
*1674 FILLER_33_256
*1675 FILLER_33_265
*1676 FILLER_33_275
*1677 FILLER_33_279
*1678 FILLER_33_281
*1679 FILLER_33_290
*1680 FILLER_33_3
*1681 FILLER_33_312
*1682 FILLER_33_316
*1683 FILLER_33_334
*1684 FILLER_33_337
*1685 FILLER_33_49
*1686 FILLER_33_55
*1687 FILLER_33_57
*1688 FILLER_33_61
*1689 FILLER_33_65
*1690 FILLER_33_74
*1691 FILLER_33_8
*1692 FILLER_33_83
*1693 FILLER_33_92
*1694 FILLER_34_104
*1695 FILLER_34_111
*1696 FILLER_34_12
*1697 FILLER_34_124
*1698 FILLER_34_132
*1699 FILLER_34_138
*1700 FILLER_34_141
*1701 FILLER_34_152
*1702 FILLER_34_172
*1703 FILLER_34_19
*1704 FILLER_34_192
*1705 FILLER_34_197
*1706 FILLER_34_208
*1707 FILLER_34_218
*1708 FILLER_34_226
*1709 FILLER_34_230
*1710 FILLER_34_241
*1711 FILLER_34_249
*1712 FILLER_34_253
*1713 FILLER_34_26
*1714 FILLER_34_262
*1715 FILLER_34_266
*1716 FILLER_34_270
*1717 FILLER_34_281
*1718 FILLER_34_289
*1719 FILLER_34_29
*1720 FILLER_34_294
*1721 FILLER_34_3
*1722 FILLER_34_306
*1723 FILLER_34_309
*1724 FILLER_34_327
*1725 FILLER_34_335
*1726 FILLER_34_48
*1727 FILLER_34_55
*1728 FILLER_34_63
*1729 FILLER_34_82
*1730 FILLER_34_85
*1731 FILLER_35_102
*1732 FILLER_35_110
*1733 FILLER_35_113
*1734 FILLER_35_12
*1735 FILLER_35_124
*1736 FILLER_35_132
*1737 FILLER_35_138
*1738 FILLER_35_141
*1739 FILLER_35_158
*1740 FILLER_35_166
*1741 FILLER_35_169
*1742 FILLER_35_175
*1743 FILLER_35_187
*1744 FILLER_35_19
*1745 FILLER_35_194
*1746 FILLER_35_197
*1747 FILLER_35_205
*1748 FILLER_35_212
*1749 FILLER_35_225
*1750 FILLER_35_237
*1751 FILLER_35_246