*SPEF "ieee 1481-1999"
*DESIGN "tt_um_psychogenic_neptuneproportional"
*DATE "11:11:11 Fri 11 11, 1111"
*VENDOR "OpenRCX"
*PROGRAM "Parallel Extraction"
*VERSION "1.0"
*DESIGN_FLOW "NAME_SCOPE LOCAL" "PIN_CAP NONE"
*DIVIDER /
*DELIMITER :
*BUS_DELIMITER []
*T_UNIT 1 NS
*C_UNIT 1 PF
*R_UNIT 1 OHM
*L_UNIT 1 HENRY

*NAME_MAP
*1 clk
*2 ena
*3 rst_n
*4 ui_in[0]
*5 ui_in[1]
*6 ui_in[2]
*7 ui_in[3]
*8 ui_in[4]
*9 ui_in[5]
*10 ui_in[6]
*11 ui_in[7]
*12 uio_in[0]
*13 uio_in[1]
*14 uio_in[2]
*15 uio_in[3]
*16 uio_in[4]
*17 uio_in[5]
*18 uio_in[6]
*19 uio_in[7]
*20 net6
*21 net7
*22 net8
*23 net9
*24 net10
*25 net11
*26 net12
*27 net13
*28 uio_out[0]
*29 uio_out[1]
*30 uio_out[2]
*31 uio_out[3]
*32 uio_out[4]
*33 uio_out[5]
*34 uio_out[6]
*35 uio_out[7]
*36 uo_out[0]
*37 uo_out[1]
*38 uo_out[2]
*39 uo_out[3]
*40 uo_out[4]
*41 uo_out[5]
*42 uo_out[6]
*43 uo_out[7]
*46 _0000_
*47 _0001_
*48 _0002_
*49 _0003_
*50 _0004_
*51 _0005_
*52 _0006_
*53 _0007_
*54 _0008_
*55 _0009_
*56 _0010_
*57 _0011_
*58 _0012_
*59 _0013_
*60 _0014_
*61 _0015_
*62 _0016_
*63 _0017_
*64 _0018_
*65 _0019_
*66 _0020_
*67 _0021_
*68 _0022_
*69 _0023_
*70 _0024_
*71 _0025_
*72 _0026_
*73 _0027_
*74 _0028_
*75 _0029_
*76 _0030_
*77 _0031_
*78 _0032_
*79 _0033_
*80 _0034_
*81 _0035_
*82 _0036_
*83 _0037_
*84 _0038_
*85 _0039_
*86 _0040_
*87 _0041_
*88 _0042_
*89 _0043_
*90 _0044_
*91 _0045_
*92 _0046_
*93 _0047_
*94 _0048_
*95 _0049_
*96 _0050_
*97 _0051_
*98 _0052_
*99 _0053_
*100 _0054_
*101 _0055_
*102 _0056_
*103 _0057_
*104 _0058_
*105 _0059_
*106 _0060_
*107 _0061_
*108 _0062_
*109 _0063_
*110 _0064_
*111 _0065_
*112 _0066_
*113 _0067_
*114 _0068_
*115 _0069_
*116 _0070_
*117 _0071_
*118 _0072_
*119 _0073_
*120 _0074_
*121 _0075_
*122 _0076_
*123 _0077_
*124 _0078_
*125 _0079_
*126 _0080_
*127 _0081_
*128 _0082_
*129 _0083_
*130 _0084_
*131 _0085_
*132 _0086_
*133 _0087_
*134 _0088_
*135 _0089_
*136 _0090_
*137 _0091_
*138 _0092_
*139 _0093_
*140 _0094_
*141 _0095_
*142 _0096_
*143 _0097_
*144 _0098_
*145 _0099_
*146 _0100_
*147 _0101_
*148 _0102_
*149 _0103_
*150 _0104_
*151 _0105_
*152 _0106_
*153 _0107_
*154 _0108_
*155 _0109_
*156 _0110_
*157 _0111_
*158 _0112_
*159 _0113_
*160 _0114_
*161 _0115_
*162 _0116_
*163 _0117_
*164 _0118_
*165 _0119_
*166 _0120_
*167 _0121_
*168 _0122_
*169 _0123_
*170 _0124_
*171 _0125_
*172 _0126_
*173 _0127_
*174 _0128_
*175 _0129_
*176 _0130_
*177 _0131_
*178 _0132_
*179 _0133_
*180 _0134_
*181 _0135_
*182 _0136_
*183 _0137_
*184 _0138_
*185 _0139_
*186 _0140_
*187 _0141_
*188 _0142_
*189 _0143_
*190 _0144_
*191 _0145_
*192 _0146_
*193 _0147_
*194 _0148_
*195 _0149_
*196 _0150_
*197 _0151_
*198 _0152_
*199 _0153_
*200 _0154_
*201 _0155_
*202 _0156_
*203 _0157_
*204 _0158_
*205 _0159_
*206 _0160_
*207 _0161_
*208 _0162_
*209 _0163_
*210 _0164_
*211 _0165_
*212 _0166_
*213 _0167_
*214 _0168_
*215 _0169_
*216 _0170_
*217 _0171_
*218 _0172_
*219 _0173_
*220 _0174_
*221 _0175_
*222 _0176_
*223 _0177_
*224 _0178_
*225 _0179_
*226 _0180_
*227 _0181_
*228 _0182_
*229 _0183_
*230 _0184_
*231 _0185_
*232 _0186_
*233 _0187_
*234 _0188_
*235 _0189_
*236 _0190_
*237 _0191_
*238 _0192_
*239 _0193_
*240 _0194_
*241 _0195_
*242 _0196_
*243 _0197_
*244 _0198_
*245 _0199_
*246 _0200_
*247 _0201_
*248 _0202_
*249 _0203_
*250 _0204_
*251 _0205_
*252 _0206_
*253 _0207_
*254 _0208_
*255 _0209_
*256 _0210_
*257 _0211_
*258 _0212_
*259 _0213_
*260 _0214_
*261 _0215_
*262 _0216_
*263 _0217_
*264 _0218_
*265 _0219_
*266 _0220_
*267 _0221_
*268 _0222_
*269 _0223_
*270 _0224_
*271 _0225_
*272 _0226_
*273 _0227_
*274 _0228_
*275 _0229_
*276 _0230_
*277 _0231_
*278 _0232_
*279 _0233_
*280 _0234_
*281 _0235_
*282 _0236_
*283 _0237_
*284 _0238_
*285 _0239_
*286 _0240_
*287 _0241_
*288 _0242_
*289 _0243_
*290 _0244_
*291 _0245_
*292 _0246_
*293 _0247_
*294 _0248_
*295 _0249_
*296 _0250_
*297 _0251_
*298 _0252_
*299 _0253_
*300 _0254_
*301 _0255_
*302 _0256_
*303 _0257_
*304 _0258_
*305 _0259_
*306 _0260_
*307 _0261_
*308 _0262_
*309 _0263_
*310 _0264_
*311 _0265_
*312 _0266_
*313 _0267_
*314 _0268_
*315 _0269_
*316 _0270_
*317 _0271_
*318 _0272_
*319 _0273_
*320 _0274_
*321 _0275_
*322 _0276_
*323 _0277_
*324 _0278_
*325 _0279_
*326 _0280_
*327 _0281_
*328 _0282_
*329 _0283_
*330 _0284_
*331 _0285_
*332 _0286_
*333 _0287_
*334 _0288_
*335 _0289_
*336 _0290_
*337 _0291_
*338 _0292_
*339 _0293_
*340 _0294_
*341 _0295_
*342 _0296_
*343 _0297_
*344 _0298_
*345 _0299_
*346 _0300_
*347 _0301_
*348 _0302_
*349 _0303_
*350 _0304_
*351 _0305_
*352 _0306_
*353 _0307_
*354 _0308_
*355 _0309_
*356 _0310_
*357 _0311_
*358 _0312_
*359 _0313_
*360 _0314_
*361 _0315_
*362 _0316_
*363 _0317_
*364 _0318_
*365 _0319_
*366 _0320_
*367 _0321_
*368 _0322_
*369 _0323_
*370 _0324_
*371 _0325_
*372 _0326_
*373 _0327_
*374 _0328_
*375 _0329_
*376 _0330_
*377 _0331_
*378 _0332_
*379 _0333_
*380 _0334_
*381 _0335_
*382 _0336_
*383 _0337_
*384 _0338_
*385 _0339_
*386 _0340_
*387 _0341_
*388 _0342_
*389 _0343_
*390 _0344_
*391 _0345_
*392 _0346_
*393 _0347_
*394 _0348_
*395 _0349_
*396 _0350_
*397 _0351_
*398 _0352_
*399 _0353_
*400 _0354_
*401 _0355_
*402 _0356_
*403 _0357_
*404 _0358_
*405 _0359_
*406 _0360_
*407 _0361_
*408 _0362_
*409 _0363_
*410 _0364_
*411 _0365_
*412 _0366_
*413 _0367_
*414 _0368_
*415 _0369_
*416 _0370_
*417 _0371_
*418 _0372_
*419 _0373_
*420 _0374_
*421 _0375_
*422 _0376_
*423 _0377_
*424 _0378_
*425 _0379_
*426 _0380_
*427 _0381_
*428 _0382_
*429 _0383_
*430 _0384_
*431 _0385_
*432 _0386_
*433 _0387_
*434 _0388_
*435 _0389_
*436 _0390_
*437 _0391_
*438 _0392_
*439 _0393_
*440 _0394_
*441 _0395_
*442 _0396_
*443 _0397_
*444 _0398_
*445 _0399_
*446 _0400_
*447 _0401_
*448 _0402_
*449 _0403_
*450 _0404_
*451 _0405_
*452 _0406_
*453 _0407_
*454 _0408_
*455 _0409_
*456 _0410_
*457 _0411_
*458 _0412_
*459 _0413_
*460 _0414_
*461 _0415_
*462 _0416_
*463 _0417_
*464 _0418_
*465 _0419_
*466 _0420_
*467 _0421_
*468 _0422_
*469 _0423_
*470 _0424_
*471 _0425_
*472 _0426_
*473 _0427_
*474 _0428_
*475 _0429_
*476 _0430_
*477 _0431_
*478 _0432_
*479 _0433_
*480 _0434_
*481 _0435_
*482 _0436_
*483 _0437_
*484 _0438_
*485 _0439_
*486 _0440_
*487 _0441_
*488 _0442_
*489 _0443_
*490 _0444_
*491 _0445_
*492 _0446_
*493 _0447_
*494 _0448_
*495 _0449_
*496 _0450_
*497 _0451_
*498 _0452_
*499 _0453_
*500 _0454_
*501 _0455_
*502 _0456_
*503 _0457_
*504 _0458_
*505 _0459_
*506 _0460_
*507 _0461_
*508 _0462_
*509 _0463_
*510 _0464_
*511 _0465_
*512 _0466_
*513 _0467_
*514 _0468_
*515 _0469_
*516 _0470_
*517 _0471_
*518 _0472_
*519 _0473_
*520 _0474_
*521 _0475_
*522 _0476_
*523 _0477_
*524 _0478_
*525 _0479_
*526 _0480_
*527 _0481_
*528 _0482_
*529 _0483_
*530 _0484_
*531 _0485_
*532 _0486_
*533 _0487_
*534 _0488_
*535 _0489_
*536 _0490_
*537 _0491_
*538 _0492_
*539 _0493_
*540 _0494_
*541 _0495_
*542 _0496_
*543 _0497_
*544 _0498_
*545 _0499_
*546 _0500_
*547 _0501_
*548 _0502_
*549 _0503_
*550 _0504_
*551 _0505_
*552 _0506_
*553 _0507_
*554 _0508_
*555 _0509_
*556 _0510_
*557 _0511_
*558 _0512_
*559 _0513_
*560 _0514_
*561 _0515_
*562 _0516_
*563 _0517_
*564 _0518_
*565 _0519_
*566 _0520_
*567 _0521_
*568 _0522_
*569 _0523_
*570 _0524_
*571 _0525_
*572 _0526_
*573 _0527_
*574 _0528_
*575 _0529_
*576 _0530_
*577 _0531_
*578 _0532_
*579 _0533_
*580 _0534_
*581 _0535_
*582 _0536_
*583 _0537_
*584 _0538_
*585 _0539_
*586 _0540_
*587 _0541_
*588 _0542_
*589 _0543_
*590 _0544_
*591 _0545_
*592 _0546_
*593 _0547_
*594 _0548_
*595 _0549_
*596 _0550_
*597 clknet_0_clk
*598 clknet_4_0_0_clk
*599 clknet_4_10_0_clk
*600 clknet_4_11_0_clk
*601 clknet_4_12_0_clk
*602 clknet_4_13_0_clk
*603 clknet_4_14_0_clk
*604 clknet_4_15_0_clk
*605 clknet_4_1_0_clk
*606 clknet_4_2_0_clk
*607 clknet_4_3_0_clk
*608 clknet_4_4_0_clk
*609 clknet_4_5_0_clk
*610 clknet_4_6_0_clk
*611 clknet_4_7_0_clk
*612 clknet_4_8_0_clk
*613 clknet_4_9_0_clk
*614 net1
*615 net14
*616 net2
*617 net3
*618 net4
*619 net5
*620 tuner\.discriminator\.curNoteIndex\[0\]
*621 tuner\.discriminator\.curNoteIndex\[1\]
*622 tuner\.discriminator\.curNoteIndex\[2\]
*623 tuner\.discriminator\.curNoteIndex\[3\]
*624 tuner\.discriminator\.curState\[0\]
*625 tuner\.discriminator\.curState\[1\]
*626 tuner\.discriminator\.curState\[2\]
*627 tuner\.discriminator\.detectionWindowMidPoint\[0\]
*628 tuner\.discriminator\.detectionWindowMidPoint\[1\]
*629 tuner\.discriminator\.detectionWindowMidPoint\[2\]
*630 tuner\.discriminator\.detectionWindowMidPoint\[3\]
*631 tuner\.discriminator\.detectionWindow\[0\]
*632 tuner\.discriminator\.detectionWindow\[1\]
*633 tuner\.discriminator\.detectionWindow\[2\]
*634 tuner\.discriminator\.detectionWindow\[3\]
*635 tuner\.discriminator\.detectionWindow\[4\]
*636 tuner\.discriminator\.inputFreqHigher
*637 tuner\.discriminator\.match_exact
*638 tuner\.discriminator\.match_far
*639 tuner\.discriminator\.match_high
*640 tuner\.discriminator\.noMatchCount\[0\]
*641 tuner\.discriminator\.noMatchCount\[1\]
*642 tuner\.discriminator\.noMatchCount\[2\]
*643 tuner\.discriminator\.noMatchCount\[3\]
*644 tuner\.discriminator\.noMatchCount\[4\]
*645 tuner\.discriminator\.note\[0\]
*646 tuner\.discriminator\.note\[1\]
*647 tuner\.discriminator\.note\[2\]
*648 tuner\.discriminator\.readingProximityResult\[0\]
*649 tuner\.discriminator\.readingProximityResult\[1\]
*650 tuner\.discriminator\.readingProximityResult\[2\]
*651 tuner\.discriminator\.readingProximityResult\[3\]
*652 tuner\.discriminator\.readingProximityResult\[4\]
*653 tuner\.discriminator\.readingProximityResult\[5\]
*654 tuner\.discriminator\.subtractResult\[0\]
*655 tuner\.discriminator\.subtractResult\[1\]
*656 tuner\.discriminator\.subtractResult\[2\]
*657 tuner\.discriminator\.subtractResult\[3\]
*658 tuner\.discriminator\.subtractResult\[4\]
*659 tuner\.discriminator\.subtractResult\[5\]
*660 tuner\.discriminator\.subtractResult\[6\]
*661 tuner\.discriminator\.subtractResult\[7\]
*662 tuner\.discriminator\.subtractResult\[8\]
*663 tuner\.display\.notedisplay\.segments\[1\]
*664 tuner\.display\.notedisplay\.segments\[2\]
*665 tuner\.display\.notedisplay\.segments\[3\]
*666 tuner\.display\.notedisplay\.segments\[4\]
*667 tuner\.display\.notedisplay\.segments\[5\]
*668 tuner\.display\.notedisplay\.segments\[6\]
*669 tuner\.display\.notedisplay\.segments\[7\]
*670 tuner\.display\.notedisplay_value\[0\]
*671 tuner\.display\.notedisplay_value\[1\]
*672 tuner\.display\.notedisplay_value\[2\]
*673 tuner\.display\.proxdisplay\.segments\[1\]
*674 tuner\.display\.proxdisplay\.segments\[2\]
*675 tuner\.display\.proxdisplay\.segments\[3\]
*676 tuner\.display\.proxdisplay\.segments\[4\]
*677 tuner\.display\.proxdisplay\.segments\[7\]
*678 tuner\.display\.proxdisplay_value\[0\]
*679 tuner\.display\.proxdisplay_value\[1\]
*680 tuner\.display\.proxdisplay_value\[2\]
*681 tuner\.display\.proximitySelect
*682 tuner\.pulsecounter\.clockCount\[0\]
*683 tuner\.pulsecounter\.clockCount\[10\]
*684 tuner\.pulsecounter\.clockCount\[11\]
*685 tuner\.pulsecounter\.clockCount\[12\]
*686 tuner\.pulsecounter\.clockCount\[13\]
*687 tuner\.pulsecounter\.clockCount\[14\]
*688 tuner\.pulsecounter\.clockCount\[1\]
*689 tuner\.pulsecounter\.clockCount\[2\]
*690 tuner\.pulsecounter\.clockCount\[3\]
*691 tuner\.pulsecounter\.clockCount\[4\]
*692 tuner\.pulsecounter\.clockCount\[5\]
*693 tuner\.pulsecounter\.clockCount\[6\]
*694 tuner\.pulsecounter\.clockCount\[7\]
*695 tuner\.pulsecounter\.clockCount\[8\]
*696 tuner\.pulsecounter\.clockCount\[9\]
*697 tuner\.pulsecounter\.edge_detect\.ffsync\.stage0
*698 tuner\.pulsecounter\.edge_detect\.ffsync\.stage1
*699 tuner\.pulsecounter\.edge_detect\.output
*700 tuner\.pulsecounter\.edge_detect\.seenRising
*701 tuner\.pulsecounter\.runningPulseCount\[0\]
*702 tuner\.pulsecounter\.runningPulseCount\[1\]
*703 tuner\.pulsecounter\.runningPulseCount\[2\]
*704 tuner\.pulsecounter\.runningPulseCount\[3\]
*705 tuner\.pulsecounter\.runningPulseCount\[4\]
*706 tuner\.pulsecounter\.runningPulseCount\[5\]
*707 tuner\.pulsecounter\.runningPulseCount\[6\]
*708 tuner\.pulsecounter\.runningPulseCount\[7\]
*709 tuner\.pulsecounter\.singlePeriodClockCount\[0\]
*710 tuner\.pulsecounter\.singlePeriodClockCount\[10\]
*711 tuner\.pulsecounter\.singlePeriodClockCount\[2\]
*712 tuner\.pulsecounter\.singlePeriodClockCount\[3\]
*713 tuner\.pulsecounter\.singlePeriodClockCount\[4\]
*714 tuner\.pulsecounter\.singlePeriodClockCount\[5\]
*715 tuner\.pulsecounter\.singlePeriodClockCount\[6\]
*716 tuner\.pulsecounter\.singlePeriodClockCount\[7\]
*717 tuner\.pulsecounter\.singlePeriodClockCount\[9\]
*718 FILLER_0_109
*719 FILLER_0_113
*720 FILLER_0_125
*721 FILLER_0_137
*722 FILLER_0_141
*723 FILLER_0_15
*724 FILLER_0_153
*725 FILLER_0_165
*726 FILLER_0_169
*727 FILLER_0_181
*728 FILLER_0_193
*729 FILLER_0_197
*730 FILLER_0_209
*731 FILLER_0_221
*732 FILLER_0_225
*733 FILLER_0_237
*734 FILLER_0_249
*735 FILLER_0_253
*736 FILLER_0_265
*737 FILLER_0_27
*738 FILLER_0_277
*739 FILLER_0_281
*740 FILLER_0_29
*741 FILLER_0_293
*742 FILLER_0_3
*743 FILLER_0_305
*744 FILLER_0_309
*745 FILLER_0_321
*746 FILLER_0_333
*747 FILLER_0_337
*748 FILLER_0_41
*749 FILLER_0_53
*750 FILLER_0_57
*751 FILLER_0_69
*752 FILLER_0_81
*753 FILLER_0_85
*754 FILLER_0_97
*755 FILLER_10_103
*756 FILLER_10_109
*757 FILLER_10_119
*758 FILLER_10_127
*759 FILLER_10_131
*760 FILLER_10_138
*761 FILLER_10_141
*762 FILLER_10_15
*763 FILLER_10_150
*764 FILLER_10_156
*765 FILLER_10_163
*766 FILLER_10_173
*767 FILLER_10_177
*768 FILLER_10_184
*769 FILLER_10_193
*770 FILLER_10_197
*771 FILLER_10_206
*772 FILLER_10_216
*773 FILLER_10_226
*774 FILLER_10_233
*775 FILLER_10_249
*776 FILLER_10_25
*777 FILLER_10_253
*778 FILLER_10_261
*779 FILLER_10_269
*780 FILLER_10_277
*781 FILLER_10_281
*782 FILLER_10_29
*783 FILLER_10_290
*784 FILLER_10_299
*785 FILLER_10_3
*786 FILLER_10_306
*787 FILLER_10_309
*788 FILLER_10_319
*789 FILLER_10_329
*790 FILLER_10_336
*791 FILLER_10_39
*792 FILLER_10_61
*793 FILLER_10_73
*794 FILLER_10_82
*795 FILLER_10_85
*796 FILLER_10_97
*797 FILLER_11_110
*798 FILLER_11_113
*799 FILLER_11_118
*800 FILLER_11_130
*801 FILLER_11_134
*802 FILLER_11_14
*803 FILLER_11_141
*804 FILLER_11_151
*805 FILLER_11_159
*806 FILLER_11_166
*807 FILLER_11_169
*808 FILLER_11_181
*809 FILLER_11_196
*810 FILLER_11_207
*811 FILLER_11_215
*812 FILLER_11_223
*813 FILLER_11_225
*814 FILLER_11_230
*815 FILLER_11_234
*816 FILLER_11_244
*817 FILLER_11_257
*818 FILLER_11_263
*819 FILLER_11_27
*820 FILLER_11_272
*821 FILLER_11_281
*822 FILLER_11_294
*823 FILLER_11_3
*824 FILLER_11_306
*825 FILLER_11_312
*826 FILLER_11_321
*827 FILLER_11_332
*828 FILLER_11_337
*829 FILLER_11_35
*830 FILLER_11_39
*831 FILLER_11_43
*832 FILLER_11_54
*833 FILLER_11_57
*834 FILLER_11_63
*835 FILLER_11_71
*836 FILLER_11_77
*837 FILLER_11_85
*838 FILLER_11_9
*839 FILLER_11_97
*840 FILLER_12_103
*841 FILLER_12_120
*842 FILLER_12_132
*843 FILLER_12_138
*844 FILLER_12_141
*845 FILLER_12_153
*846 FILLER_12_165
*847 FILLER_12_172
*848 FILLER_12_179
*849 FILLER_12_187
*850 FILLER_12_193
*851 FILLER_12_197
*852 FILLER_12_205
*853 FILLER_12_212
*854 FILLER_12_220
*855 FILLER_12_227
*856 FILLER_12_23
*857 FILLER_12_234
*858 FILLER_12_242
*859 FILLER_12_248
*860 FILLER_12_253
*861 FILLER_12_259
*862 FILLER_12_266
*863 FILLER_12_27
*864 FILLER_12_274
*865 FILLER_12_285
*866 FILLER_12_289
*867 FILLER_12_29
*868 FILLER_12_3
*869 FILLER_12_306
*870 FILLER_12_309
*871 FILLER_12_317
*872 FILLER_12_327
*873 FILLER_12_336
*874 FILLER_12_36
*875 FILLER_12_44
*876 FILLER_12_51
*877 FILLER_12_59
*878 FILLER_12_71
*879 FILLER_12_82
*880 FILLER_12_85
*881 FILLER_12_95
*882 FILLER_13_110
*883 FILLER_13_113
*884 FILLER_13_125
*885 FILLER_13_133
*886 FILLER_13_15
*887 FILLER_13_152
*888 FILLER_13_160
*889 FILLER_13_166
*890 FILLER_13_169
*891 FILLER_13_177
*892 FILLER_13_184
*893 FILLER_13_19
*894 FILLER_13_204
*895 FILLER_13_220
*896 FILLER_13_225
*897 FILLER_13_232
*898 FILLER_13_236
*899 FILLER_13_242
*900 FILLER_13_262
*901 FILLER_13_275
*902 FILLER_13_279
*903 FILLER_13_28
*904 FILLER_13_281
*905 FILLER_13_3
*906 FILLER_13_305
*907 FILLER_13_309
*908 FILLER_13_313
*909 FILLER_13_333
*910 FILLER_13_337
*911 FILLER_13_40
*912 FILLER_13_48
*913 FILLER_13_54
*914 FILLER_13_57
*915 FILLER_13_66
*916 FILLER_13_75
*917 FILLER_13_82
*918 FILLER_14_11
*919 FILLER_14_118
*920 FILLER_14_138
*921 FILLER_14_141
*922 FILLER_14_160
*923 FILLER_14_164
*924 FILLER_14_169
*925 FILLER_14_177
*926 FILLER_14_194
*927 FILLER_14_197
*928 FILLER_14_209
*929 FILLER_14_228
*930 FILLER_14_240
*931 FILLER_14_244
*932 FILLER_14_250
*933 FILLER_14_253
*934 FILLER_14_26
*935 FILLER_14_271
*936 FILLER_14_277
*937 FILLER_14_29
*938 FILLER_14_294
*939 FILLER_14_3
*940 FILLER_14_306
*941 FILLER_14_309
*942 FILLER_14_327
*943 FILLER_14_334
*944 FILLER_14_38
*945 FILLER_14_45
*946 FILLER_14_49
*947 FILLER_14_53
*948 FILLER_14_64
*949 FILLER_14_68
*950 FILLER_14_78
*951 FILLER_14_85
*952 FILLER_14_89
*953 FILLER_14_98
*954 FILLER_15_110
*955 FILLER_15_113
*956 FILLER_15_135
*957 FILLER_15_14
*958 FILLER_15_147
*959 FILLER_15_165
*960 FILLER_15_169
*961 FILLER_15_187
*962 FILLER_15_195
*963 FILLER_15_203
*964 FILLER_15_215
*965 FILLER_15_223
*966 FILLER_15_225
*967 FILLER_15_243
*968 FILLER_15_25
*969 FILLER_15_255
*970 FILLER_15_261
*971 FILLER_15_278
*972 FILLER_15_281
*973 FILLER_15_299
*974 FILLER_15_3
*975 FILLER_15_311
*976 FILLER_15_331
*977 FILLER_15_335
*978 FILLER_15_337
*979 FILLER_15_38
*980 FILLER_15_46
*981 FILLER_15_50
*982 FILLER_15_54
*983 FILLER_15_57
*984 FILLER_15_63
*985 FILLER_15_73
*986 FILLER_15_81
*987 FILLER_15_90
*988 FILLER_16_114
*989 FILLER_16_121
*990 FILLER_16_133
*991 FILLER_16_139
*992 FILLER_16_141
*993 FILLER_16_15
*994 FILLER_16_153
*995 FILLER_16_175
*996 FILLER_16_187
*997 FILLER_16_194
*998 FILLER_16_197
*999 FILLER_16_215
*1000 FILLER_16_222
*1001 FILLER_16_23
*1002 FILLER_16_230
*1003 FILLER_16_247
*1004 FILLER_16_251
*1005 FILLER_16_253
*1006 FILLER_16_27
*1007 FILLER_16_271
*1008 FILLER_16_29
*1009 FILLER_16_291
*1010 FILLER_16_3
*1011 FILLER_16_306
*1012 FILLER_16_309
*1013 FILLER_16_328
*1014 FILLER_16_336
*1015 FILLER_16_36
*1016 FILLER_16_40
*1017 FILLER_16_50
*1018 FILLER_16_58
*1019 FILLER_16_64
*1020 FILLER_16_73
*1021 FILLER_16_82
*1022 FILLER_16_85
*1023 FILLER_16_94
*1024 FILLER_17_110
*1025 FILLER_17_113
*1026 FILLER_17_120
*1027 FILLER_17_124
*1028 FILLER_17_13
*1029 FILLER_17_133
*1030 FILLER_17_141
*1031 FILLER_17_149
*1032 FILLER_17_156
*1033 FILLER_17_169
*1034 FILLER_17_187
*1035 FILLER_17_199
*1036 FILLER_17_207
*1037 FILLER_17_222
*1038 FILLER_17_225
*1039 FILLER_17_231
*1040 FILLER_17_237
*1041 FILLER_17_25
*1042 FILLER_17_252
*1043 FILLER_17_262
*1044 FILLER_17_271
*1045 FILLER_17_278
*1046 FILLER_17_281
*1047 FILLER_17_286
*1048 FILLER_17_298
*1049 FILLER_17_3
*1050 FILLER_17_304
*1051 FILLER_17_316
*1052 FILLER_17_333
*1053 FILLER_17_337
*1054 FILLER_17_45
*1055 FILLER_17_54
*1056 FILLER_17_57
*1057 FILLER_17_65
*1058 FILLER_17_74
*1059 FILLER_17_86
*1060 FILLER_17_90
*1061 FILLER_18_11
*1062 FILLER_18_117
*1063 FILLER_18_138
*1064 FILLER_18_141
*1065 FILLER_18_149
*1066 FILLER_18_155
*1067 FILLER_18_168
*1068 FILLER_18_18
*1069 FILLER_18_183
*1070 FILLER_18_195
*1071 FILLER_18_197
*1072 FILLER_18_202
*1073 FILLER_18_210
*1074 FILLER_18_228
*1075 FILLER_18_236
*1076 FILLER_18_248
*1077 FILLER_18_253
*1078 FILLER_18_259
*1079 FILLER_18_26
*1080 FILLER_18_276
*1081 FILLER_18_284
*1082 FILLER_18_29
*1083 FILLER_18_291
*1084 FILLER_18_3
*1085 FILLER_18_306
*1086 FILLER_18_309
*1087 FILLER_18_333
*1088 FILLER_18_337
*1089 FILLER_18_44
*1090 FILLER_18_54
*1091 FILLER_18_62
*1092 FILLER_18_66
*1093 FILLER_18_70
*1094 FILLER_18_79
*1095 FILLER_18_83
*1096 FILLER_18_85
*1097 FILLER_18_97
*1098 FILLER_19_110
*1099 FILLER_19_113
*1100 FILLER_19_121
*1101 FILLER_19_133
*1102 FILLER_19_144
*1103 FILLER_19_164
*1104 FILLER_19_169
*1105 FILLER_19_187
*1106 FILLER_19_19
*1107 FILLER_19_196
*1108 FILLER_19_204
*1109 FILLER_19_222
*1110 FILLER_19_225
*1111 FILLER_19_243
*1112 FILLER_19_263
*1113 FILLER_19_275
*1114 FILLER_19_279
*1115 FILLER_19_281
*1116 FILLER_19_288
*1117 FILLER_19_296
*1118 FILLER_19_3
*1119 FILLER_19_30
*1120 FILLER_19_306
*1121 FILLER_19_328
*1122 FILLER_19_337
*1123 FILLER_19_42
*1124 FILLER_19_50
*1125 FILLER_19_54
*1126 FILLER_19_57
*1127 FILLER_19_69
*1128 FILLER_19_78
*1129 FILLER_19_9
*1130 FILLER_19_90
*1131 FILLER_1_105
*1132 FILLER_1_111
*1133 FILLER_1_113
*1134 FILLER_1_125
*1135 FILLER_1_137
*1136 FILLER_1_149
*1137 FILLER_1_15
*1138 FILLER_1_161
*1139 FILLER_1_167
*1140 FILLER_1_169
*1141 FILLER_1_181
*1142 FILLER_1_193
*1143 FILLER_1_205
*1144 FILLER_1_217
*1145 FILLER_1_223
*1146 FILLER_1_225
*1147 FILLER_1_237
*1148 FILLER_1_249
*1149 FILLER_1_261
*1150 FILLER_1_27
*1151 FILLER_1_273
*1152 FILLER_1_279
*1153 FILLER_1_281
*1154 FILLER_1_293
*1155 FILLER_1_3
*1156 FILLER_1_305
*1157 FILLER_1_317
*1158 FILLER_1_329
*1159 FILLER_1_335
*1160 FILLER_1_337
*1161 FILLER_1_39
*1162 FILLER_1_51
*1163 FILLER_1_55
*1164 FILLER_1_57
*1165 FILLER_1_69
*1166 FILLER_1_81
*1167 FILLER_1_93
*1168 FILLER_20_102
*1169 FILLER_20_11
*1170 FILLER_20_120
*1171 FILLER_20_135
*1172 FILLER_20_139
*1173 FILLER_20_141
*1174 FILLER_20_159
*1175 FILLER_20_172
*1176 FILLER_20_189
*1177 FILLER_20_195
*1178 FILLER_20_197
*1179 FILLER_20_202
*1180 FILLER_20_214
*1181 FILLER_20_22
*1182 FILLER_20_233
*1183 FILLER_20_245
*1184 FILLER_20_250
*1185 FILLER_20_253
*1186 FILLER_20_271
*1187 FILLER_20_279
*1188 FILLER_20_287
*1189 FILLER_20_29
*1190 FILLER_20_294
*1191 FILLER_20_3
*1192 FILLER_20_306
*1193 FILLER_20_309
*1194 FILLER_20_327
*1195 FILLER_20_335
*1196 FILLER_20_38
*1197 FILLER_20_47
*1198 FILLER_20_55
*1199 FILLER_20_63
*1200 FILLER_20_67
*1201 FILLER_20_74
*1202 FILLER_20_82
*1203 FILLER_20_85
*1204 FILLER_20_94
*1205 FILLER_21_110
*1206 FILLER_21_113
*1207 FILLER_21_119
*1208 FILLER_21_129
*1209 FILLER_21_141
*1210 FILLER_21_149
*1211 FILLER_21_154
*1212 FILLER_21_16
*1213 FILLER_21_166
*1214 FILLER_21_169
*1215 FILLER_21_174
*1216 FILLER_21_183
*1217 FILLER_21_192
*1218 FILLER_21_200
*1219 FILLER_21_207
*1220 FILLER_21_217
*1221 FILLER_21_223
*1222 FILLER_21_225
*1223 FILLER_21_231
*1224 FILLER_21_239
*1225 FILLER_21_24
*1226 FILLER_21_254
*1227 FILLER_21_269
*1228 FILLER_21_277
*1229 FILLER_21_281
*1230 FILLER_21_289
*1231 FILLER_21_3
*1232 FILLER_21_301
*1233 FILLER_21_311
*1234 FILLER_21_33
*1235 FILLER_21_333
*1236 FILLER_21_337
*1237 FILLER_21_41
*1238 FILLER_21_49
*1239 FILLER_21_55
*1240 FILLER_21_57
*1241 FILLER_21_64
*1242 FILLER_21_76
*1243 FILLER_21_85
*1244 FILLER_21_9
*1245 FILLER_21_93
*1246 FILLER_22_118
*1247 FILLER_22_138
*1248 FILLER_22_141
*1249 FILLER_22_15
*1250 FILLER_22_161
*1251 FILLER_22_169
*1252 FILLER_22_185
*1253 FILLER_22_194
*1254 FILLER_22_197
*1255 FILLER_22_203
*1256 FILLER_22_207
*1257 FILLER_22_211
*1258 FILLER_22_222
*1259 FILLER_22_23
*1260 FILLER_22_232
*1261 FILLER_22_239
*1262 FILLER_22_246
*1263 FILLER_22_253
*1264 FILLER_22_260
*1265 FILLER_22_264
*1266 FILLER_22_27
*1267 FILLER_22_272
*1268 FILLER_22_281
*1269 FILLER_22_289
*1270 FILLER_22_29
*1271 FILLER_22_298
*1272 FILLER_22_3
*1273 FILLER_22_306
*1274 FILLER_22_309
*1275 FILLER_22_317
*1276 FILLER_22_326
*1277 FILLER_22_333
*1278 FILLER_22_337
*1279 FILLER_22_37
*1280 FILLER_22_45
*1281 FILLER_22_53
*1282 FILLER_22_61
*1283 FILLER_22_69
*1284 FILLER_22_77
*1285 FILLER_22_82
*1286 FILLER_22_85
*1287 FILLER_22_98
*1288 FILLER_23_109
*1289 FILLER_23_113
*1290 FILLER_23_125
*1291 FILLER_23_129
*1292 FILLER_23_134
*1293 FILLER_23_154
*1294 FILLER_23_160
*1295 FILLER_23_166
*1296 FILLER_23_169
*1297 FILLER_23_19
*1298 FILLER_23_191
*1299 FILLER_23_195
*1300 FILLER_23_212
*1301 FILLER_23_221
*1302 FILLER_23_225
*1303 FILLER_23_229
*1304 FILLER_23_246
*1305 FILLER_23_257
*1306 FILLER_23_276
*1307 FILLER_23_281
*1308 FILLER_23_289
*1309 FILLER_23_3
*1310 FILLER_23_301
*1311 FILLER_23_311
*1312 FILLER_23_32
*1313 FILLER_23_322
*1314 FILLER_23_332
*1315 FILLER_23_337
*1316 FILLER_23_36
*1317 FILLER_23_43
*1318 FILLER_23_52
*1319 FILLER_23_57
*1320 FILLER_23_64
*1321 FILLER_23_73
*1322 FILLER_23_8
*1323 FILLER_23_83
*1324 FILLER_23_96
*1325 FILLER_24_118
*1326 FILLER_24_126
*1327 FILLER_24_134
*1328 FILLER_24_138
*1329 FILLER_24_141
*1330 FILLER_24_151
*1331 FILLER_24_16
*1332 FILLER_24_160
*1333 FILLER_24_169
*1334 FILLER_24_177
*1335 FILLER_24_184
*1336 FILLER_24_197
*1337 FILLER_24_206
*1338 FILLER_24_212
*1339 FILLER_24_233
*1340 FILLER_24_245
*1341 FILLER_24_251
*1342 FILLER_24_253
*1343 FILLER_24_26
*1344 FILLER_24_261
*1345 FILLER_24_275
*1346 FILLER_24_29
*1347 FILLER_24_297
*1348 FILLER_24_3
*1349 FILLER_24_304
*1350 FILLER_24_309
*1351 FILLER_24_333
*1352 FILLER_24_337
*1353 FILLER_24_35
*1354 FILLER_24_41
*1355 FILLER_24_45
*1356 FILLER_24_51
*1357 FILLER_24_62
*1358 FILLER_24_71
*1359 FILLER_24_82
*1360 FILLER_24_85
*1361 FILLER_24_94
*1362 FILLER_24_98
*1363 FILLER_25_104
*1364 FILLER_25_113
*1365 FILLER_25_119
*1366 FILLER_25_127
*1367 FILLER_25_145
*1368 FILLER_25_153
*1369 FILLER_25_16
*1370 FILLER_25_160
*1371 FILLER_25_169
*1372 FILLER_25_175
*1373 FILLER_25_182
*1374 FILLER_25_194
*1375 FILLER_25_20
*1376 FILLER_25_201
*1377 FILLER_25_209
*1378 FILLER_25_217
*1379 FILLER_25_223
*1380 FILLER_25_225
*1381 FILLER_25_229
*1382 FILLER_25_234
*1383 FILLER_25_242
*1384 FILLER_25_246
*1385 FILLER_25_260
*1386 FILLER_25_269
*1387 FILLER_25_278
*1388 FILLER_25_281
*1389 FILLER_25_29
*1390 FILLER_25_290
*1391 FILLER_25_3
*1392 FILLER_25_301
*1393 FILLER_25_313
*1394 FILLER_25_333
*1395 FILLER_25_337
*1396 FILLER_25_40
*1397 FILLER_25_44
*1398 FILLER_25_53
*1399 FILLER_25_57
*1400 FILLER_25_65
*1401 FILLER_25_76
*1402 FILLER_25_85
*1403 FILLER_25_94
*1404 FILLER_26_119
*1405 FILLER_26_12
*1406 FILLER_26_131
*1407 FILLER_26_138
*1408 FILLER_26_141
*1409 FILLER_26_152
*1410 FILLER_26_174
*1411 FILLER_26_185
*1412 FILLER_26_19
*1413 FILLER_26_194
*1414 FILLER_26_197
*1415 FILLER_26_208
*1416 FILLER_26_218
*1417 FILLER_26_230
*1418 FILLER_26_236
*1419 FILLER_26_250
*1420 FILLER_26_253
*1421 FILLER_26_26
*1422 FILLER_26_271
*1423 FILLER_26_282
*1424 FILLER_26_29
*1425 FILLER_26_294
*1426 FILLER_26_3
*1427 FILLER_26_306
*1428 FILLER_26_309
*1429 FILLER_26_319
*1430 FILLER_26_329
*1431 FILLER_26_336
*1432 FILLER_26_42
*1433 FILLER_26_54
*1434 FILLER_26_63
*1435 FILLER_26_75
*1436 FILLER_26_82
*1437 FILLER_26_85
*1438 FILLER_26_95
*1439 FILLER_26_99
*1440 FILLER_27_110
*1441 FILLER_27_113
*1442 FILLER_27_118
*1443 FILLER_27_128
*1444 FILLER_27_138
*1445 FILLER_27_150
*1446 FILLER_27_162
*1447 FILLER_27_169
*1448 FILLER_27_17
*1449 FILLER_27_181
*1450 FILLER_27_187
*1451 FILLER_27_196
*1452 FILLER_27_205
*1453 FILLER_27_213
*1454 FILLER_27_222
*1455 FILLER_27_225
*1456 FILLER_27_230
*1457 FILLER_27_234
*1458 FILLER_27_242
*1459 FILLER_27_253
*1460 FILLER_27_260
*1461 FILLER_27_271
*1462 FILLER_27_278
*1463 FILLER_27_281
*1464 FILLER_27_294
*1465 FILLER_27_3
*1466 FILLER_27_30
*1467 FILLER_27_313
*1468 FILLER_27_323
*1469 FILLER_27_333
*1470 FILLER_27_337
*1471 FILLER_27_40
*1472 FILLER_27_49
*1473 FILLER_27_55
*1474 FILLER_27_57
*1475 FILLER_27_65
*1476 FILLER_27_76
*1477 FILLER_27_89
*1478 FILLER_27_9
*1479 FILLER_28_118
*1480 FILLER_28_13
*1481 FILLER_28_133
*1482 FILLER_28_139
*1483 FILLER_28_141
*1484 FILLER_28_159
*1485 FILLER_28_178
*1486 FILLER_28_188
*1487 FILLER_28_197
*1488 FILLER_28_215
*1489 FILLER_28_224
*1490 FILLER_28_228
*1491 FILLER_28_234
*1492 FILLER_28_24
*1493 FILLER_28_246
*1494 FILLER_28_253
*1495 FILLER_28_277
*1496 FILLER_28_29
*1497 FILLER_28_297
*1498 FILLER_28_3
*1499 FILLER_28_306
*1500 FILLER_28_309
*1501 FILLER_28_322
*1502 FILLER_28_33
*1503 FILLER_28_333
*1504 FILLER_28_337
*1505 FILLER_28_42
*1506 FILLER_28_53
*1507 FILLER_28_60
*1508 FILLER_28_73
*1509 FILLER_28_82
*1510 FILLER_28_85
*1511 FILLER_28_9
*1512 FILLER_28_92
*1513 FILLER_28_98
*1514 FILLER_29_110
*1515 FILLER_29_113
*1516 FILLER_29_131
*1517 FILLER_29_138
*1518 FILLER_29_146
*1519 FILLER_29_15
*1520 FILLER_29_165
*1521 FILLER_29_169
*1522 FILLER_29_174
*1523 FILLER_29_180
*1524 FILLER_29_192
*1525 FILLER_29_202
*1526 FILLER_29_212
*1527 FILLER_29_225
*1528 FILLER_29_233
*1529 FILLER_29_24
*1530 FILLER_29_246
*1531 FILLER_29_266
*1532 FILLER_29_272
*1533 FILLER_29_278
*1534 FILLER_29_281
*1535 FILLER_29_285
*1536 FILLER_29_289
*1537 FILLER_29_298
*1538 FILLER_29_3
*1539 FILLER_29_318
*1540 FILLER_29_326
*1541 FILLER_29_334
*1542 FILLER_29_337
*1543 FILLER_29_34
*1544 FILLER_29_42
*1545 FILLER_29_47
*1546 FILLER_29_55
*1547 FILLER_29_57
*1548 FILLER_29_65
*1549 FILLER_29_75
*1550 FILLER_29_83
*1551 FILLER_29_87
*1552 FILLER_2_109
*1553 FILLER_2_121
*1554 FILLER_2_133
*1555 FILLER_2_139
*1556 FILLER_2_141
*1557 FILLER_2_15
*1558 FILLER_2_153
*1559 FILLER_2_165
*1560 FILLER_2_177
*1561 FILLER_2_189
*1562 FILLER_2_195
*1563 FILLER_2_197
*1564 FILLER_2_209
*1565 FILLER_2_221
*1566 FILLER_2_233
*1567 FILLER_2_245
*1568 FILLER_2_251
*1569 FILLER_2_253
*1570 FILLER_2_265
*1571 FILLER_2_27
*1572 FILLER_2_277
*1573 FILLER_2_289
*1574 FILLER_2_29
*1575 FILLER_2_3
*1576 FILLER_2_301
*1577 FILLER_2_307
*1578 FILLER_2_309
*1579 FILLER_2_321
*1580 FILLER_2_333
*1581 FILLER_2_337
*1582 FILLER_2_41
*1583 FILLER_2_53
*1584 FILLER_2_65
*1585 FILLER_2_77
*1586 FILLER_2_83
*1587 FILLER_2_85
*1588 FILLER_2_97
*1589 FILLER_30_119
*1590 FILLER_30_134
*1591 FILLER_30_141
*1592 FILLER_30_153
*1593 FILLER_30_16
*1594 FILLER_30_163
*1595 FILLER_30_185
*1596 FILLER_30_192
*1597 FILLER_30_197
*1598 FILLER_30_215
*1599 FILLER_30_219
*1600 FILLER_30_225
*1601 FILLER_30_234
*1602 FILLER_30_241
*1603 FILLER_30_245
*1604 FILLER_30_249
*1605 FILLER_30_253
*1606 FILLER_30_26
*1607 FILLER_30_260
*1608 FILLER_30_268
*1609 FILLER_30_285
*1610 FILLER_30_29
*1611 FILLER_30_298
*1612 FILLER_30_3
*1613 FILLER_30_306
*1614 FILLER_30_309
*1615 FILLER_30_315
*1616 FILLER_30_332
*1617 FILLER_30_39
*1618 FILLER_30_45
*1619 FILLER_30_50
*1620 FILLER_30_63
*1621 FILLER_30_76
*1622 FILLER_30_85
*1623 FILLER_30_91
*1624 FILLER_30_95
*1625 FILLER_30_99
*1626 FILLER_31_110
*1627 FILLER_31_113
*1628 FILLER_31_133
*1629 FILLER_31_14