*SPEF "ieee 1481-1999"
*DESIGN "tt_um_apu_pulse"
*DATE "11:11:11 Fri 11 11, 1111"
*VENDOR "OpenRCX"
*PROGRAM "Parallel Extraction"
*VERSION "1.0"
*DESIGN_FLOW "NAME_SCOPE LOCAL" "PIN_CAP NONE"
*DIVIDER /
*DELIMITER :
*BUS_DELIMITER []
*T_UNIT 1 NS
*C_UNIT 1 PF
*R_UNIT 1 OHM
*L_UNIT 1 HENRY

*NAME_MAP
*1 clk
*2 ena
*3 rst_n
*4 ui_in[0]
*5 ui_in[1]
*6 ui_in[2]
*7 ui_in[3]
*8 ui_in[4]
*9 ui_in[5]
*10 ui_in[6]
*11 ui_in[7]
*12 uio_in[0]
*13 uio_in[1]
*14 uio_in[2]
*15 uio_in[3]
*16 uio_in[4]
*17 uio_in[5]
*18 uio_in[6]
*19 uio_in[7]
*20 net18
*21 net19
*22 net20
*23 net21
*24 net22
*25 net23
*26 net24
*27 net25
*28 net26
*29 net27
*30 net28
*31 net29
*32 net30
*33 net31
*34 net32
*35 net33
*36 uo_out[0]
*37 uo_out[1]
*38 uo_out[2]
*39 uo_out[3]
*40 uo_out[4]
*41 uo_out[5]
*42 uo_out[6]
*43 uo_out[7]
*46 _0000_
*47 _0001_
*48 _0002_
*49 _0003_
*50 _0004_
*51 _0005_
*52 _0006_
*53 _0007_
*54 _0008_
*55 _0009_
*56 _0010_
*57 _0011_
*58 _0012_
*59 _0013_
*60 _0014_
*61 _0015_
*62 _0016_
*63 _0017_
*64 _0018_
*65 _0019_
*66 _0020_
*67 _0021_
*68 _0022_
*69 _0023_
*70 _0024_
*71 _0025_
*72 _0026_
*73 _0027_
*74 _0028_
*75 _0029_
*76 _0030_
*77 _0031_
*78 _0032_
*79 _0033_
*80 _0034_
*81 _0035_
*82 _0036_
*83 _0037_
*84 _0038_
*85 _0039_
*86 _0040_
*87 _0041_
*88 _0042_
*89 _0043_
*90 _0044_
*91 _0045_
*92 _0046_
*93 _0047_
*94 _0048_
*95 _0049_
*96 _0050_
*97 _0051_
*98 _0052_
*99 _0053_
*100 _0054_
*101 _0055_
*102 _0056_
*103 _0057_
*104 _0058_
*105 _0059_
*106 _0060_
*107 _0061_
*108 _0062_
*109 _0063_
*110 _0064_
*111 _0065_
*112 _0066_
*113 _0067_
*114 _0068_
*115 _0069_
*116 _0070_
*117 _0071_
*118 _0072_
*119 _0073_
*120 _0074_
*121 _0075_
*122 _0076_
*123 _0077_
*124 _0078_
*125 _0079_
*126 _0080_
*127 _0081_
*128 _0082_
*129 _0083_
*130 _0084_
*131 _0085_
*132 _0086_
*133 _0087_
*134 _0088_
*135 _0089_
*136 _0090_
*137 _0091_
*138 _0092_
*139 _0093_
*140 _0094_
*141 _0095_
*142 _0096_
*143 _0097_
*144 _0098_
*145 _0099_
*146 _0100_
*147 _0101_
*148 _0102_
*149 _0103_
*150 _0104_
*151 _0105_
*152 _0106_
*153 _0107_
*154 _0108_
*155 _0109_
*156 _0110_
*157 _0111_
*158 _0112_
*159 _0113_
*160 _0114_
*161 _0115_
*162 _0116_
*163 _0117_
*164 _0118_
*165 _0119_
*166 _0120_
*167 _0121_
*168 _0122_
*169 _0123_
*170 _0124_
*171 _0125_
*172 _0126_
*173 _0127_
*174 _0128_
*175 _0129_
*176 _0130_
*177 _0131_
*178 _0132_
*179 _0133_
*180 _0134_
*181 _0135_
*182 _0136_
*183 _0137_
*184 _0138_
*185 _0139_
*186 _0140_
*187 _0141_
*188 _0142_
*189 _0143_
*190 _0144_
*191 _0145_
*192 _0146_
*193 _0147_
*194 _0148_
*195 _0149_
*196 _0150_
*197 _0151_
*198 _0152_
*199 _0153_
*200 _0154_
*201 _0155_
*202 _0156_
*203 _0157_
*204 _0158_
*205 _0159_
*206 _0160_
*207 _0161_
*208 _0162_
*209 _0163_
*210 _0164_
*211 _0165_
*212 _0166_
*213 _0167_
*214 _0168_
*215 _0169_
*216 _0170_
*217 _0171_
*218 _0172_
*219 _0173_
*220 _0174_
*221 _0175_
*222 _0176_
*223 _0177_
*224 _0178_
*225 _0179_
*226 _0180_
*227 _0181_
*228 _0182_
*229 _0183_
*230 _0184_
*231 _0185_
*232 _0186_
*233 _0187_
*234 _0188_
*235 _0189_
*236 _0190_
*237 _0191_
*238 _0192_
*239 _0193_
*240 _0194_
*241 _0195_
*242 _0196_
*243 _0197_
*244 _0198_
*245 _0199_
*246 _0200_
*247 _0201_
*248 _0202_
*249 _0203_
*250 _0204_
*251 _0205_
*252 _0206_
*253 _0207_
*254 _0208_
*255 _0209_
*256 _0210_
*257 _0211_
*258 _0212_
*259 _0213_
*260 _0214_
*261 _0215_
*262 _0216_
*263 _0217_
*264 _0218_
*265 _0219_
*266 _0220_
*267 _0221_
*268 _0222_
*269 _0223_
*270 _0224_
*271 _0225_
*272 _0226_
*273 _0227_
*274 _0228_
*275 _0229_
*276 _0230_
*277 _0231_
*278 _0232_
*279 _0233_
*280 _0234_
*281 _0235_
*282 _0236_
*283 _0237_
*284 _0238_
*285 _0239_
*286 _0240_
*287 _0241_
*288 _0242_
*289 _0243_
*290 _0244_
*291 _0245_
*292 _0246_
*293 _0247_
*294 _0248_
*295 _0249_
*296 _0250_
*297 _0251_
*298 _0252_
*299 _0253_
*300 _0254_
*301 _0255_
*302 _0256_
*303 _0257_
*304 _0258_
*305 _0259_
*306 _0260_
*307 _0261_
*308 _0262_
*309 _0263_
*310 _0264_
*311 _0265_
*312 _0266_
*313 _0267_
*314 _0268_
*315 _0269_
*316 _0270_
*317 _0271_
*318 _0272_
*319 _0273_
*320 _0274_
*321 _0275_
*322 _0276_
*323 _0277_
*324 _0278_
*325 _0279_
*326 _0280_
*327 _0281_
*328 _0282_
*329 _0283_
*330 _0284_
*331 _0285_
*332 _0286_
*333 _0287_
*334 _0288_
*335 _0289_
*336 _0290_
*337 _0291_
*338 _0292_
*339 _0293_
*340 _0294_
*341 _0295_
*342 _0296_
*343 _0297_
*344 _0298_
*345 _0299_
*346 _0300_
*347 _0301_
*348 _0302_
*349 _0303_
*350 _0304_
*351 _0305_
*352 _0306_
*353 _0307_
*354 _0308_
*355 _0309_
*356 _0310_
*357 _0311_
*358 _0312_
*359 _0313_
*360 _0314_
*361 _0315_
*362 _0316_
*363 _0317_
*364 _0318_
*365 _0319_
*366 _0320_
*367 _0321_
*368 _0322_
*369 _0323_
*370 _0324_
*371 _0325_
*372 _0326_
*373 _0327_
*374 _0328_
*375 _0329_
*376 _0330_
*377 _0331_
*378 _0332_
*379 _0333_
*380 _0334_
*381 _0335_
*382 _0336_
*383 _0337_
*384 _0338_
*385 _0339_
*386 _0340_
*387 _0341_
*388 _0342_
*389 _0343_
*390 _0344_
*391 _0345_
*392 _0346_
*393 _0347_
*394 _0348_
*395 _0349_
*396 _0350_
*397 _0351_
*398 _0352_
*399 _0353_
*400 _0354_
*401 _0355_
*402 _0356_
*403 _0357_
*404 _0358_
*405 _0359_
*406 _0360_
*407 _0361_
*408 _0362_
*409 _0363_
*410 _0364_
*411 _0365_
*412 _0366_
*413 _0367_
*414 _0368_
*415 _0369_
*416 _0370_
*417 _0371_
*418 _0372_
*419 _0373_
*420 _0374_
*421 _0375_
*422 _0376_
*423 _0377_
*424 _0378_
*425 _0379_
*426 _0380_
*427 _0381_
*428 _0382_
*429 _0383_
*430 _0384_
*431 _0385_
*432 _0386_
*433 _0387_
*434 _0388_
*435 _0389_
*436 _0390_
*437 _0391_
*438 _0392_
*439 _0393_
*440 _0394_
*441 _0395_
*442 _0396_
*443 _0397_
*444 _0398_
*445 _0399_
*446 _0400_
*447 _0401_
*448 _0402_
*449 _0403_
*450 _0404_
*451 _0405_
*452 _0406_
*453 _0407_
*454 _0408_
*455 _0409_
*456 _0410_
*457 _0411_
*458 _0412_
*459 _0413_
*460 _0414_
*461 _0415_
*462 _0416_
*463 _0417_
*464 _0418_
*465 _0419_
*466 _0420_
*467 _0421_
*468 _0422_
*469 _0423_
*470 _0424_
*471 _0425_
*472 _0426_
*473 _0427_
*474 _0428_
*475 _0429_
*476 _0430_
*477 _0431_
*478 _0432_
*479 _0433_
*480 _0434_
*481 _0435_
*482 _0436_
*483 _0437_
*484 _0438_
*485 _0439_
*486 _0440_
*487 _0441_
*488 _0442_
*489 _0443_
*490 _0444_
*491 _0445_
*492 _0446_
*493 _0447_
*494 _0448_
*495 _0449_
*496 _0450_
*497 _0451_
*498 _0452_
*499 _0453_
*500 _0454_
*501 _0455_
*502 _0456_
*503 _0457_
*504 _0458_
*505 _0459_
*506 _0460_
*507 _0461_
*508 _0462_
*509 _0463_
*510 _0464_
*511 _0465_
*512 _0466_
*513 _0467_
*514 _0468_
*515 _0469_
*516 _0470_
*517 _0471_
*518 _0472_
*519 _0473_
*520 _0474_
*521 _0475_
*522 _0476_
*523 _0477_
*524 _0478_
*525 _0479_
*526 _0480_
*527 _0481_
*528 _0482_
*529 _0483_
*530 _0484_
*531 _0485_
*532 _0486_
*533 _0487_
*534 _0488_
*535 _0489_
*536 _0490_
*537 _0491_
*538 _0492_
*539 _0493_
*540 _0494_
*541 _0495_
*542 _0496_
*543 _0497_
*544 _0498_
*545 _0499_
*546 _0500_
*547 _0501_
*548 _0502_
*549 _0503_
*550 _0504_
*551 _0505_
*552 _0506_
*553 _0507_
*554 _0508_
*555 _0509_
*556 _0510_
*557 _0511_
*558 _0512_
*559 _0513_
*560 _0514_
*561 _0515_
*562 _0516_
*563 _0517_
*564 _0518_
*565 _0519_
*566 _0520_
*567 _0521_
*568 _0522_
*569 _0523_
*570 _0524_
*571 _0525_
*572 _0526_
*573 _0527_
*574 _0528_
*575 _0529_
*576 _0530_
*577 _0531_
*578 _0532_
*579 _0533_
*580 _0534_
*581 _0535_
*582 _0536_
*583 _0537_
*584 _0538_
*585 _0539_
*586 _0540_
*587 _0541_
*588 _0542_
*589 _0543_
*590 _0544_
*591 _0545_
*592 _0546_
*593 _0547_
*594 _0548_
*595 _0549_
*596 _0550_
*597 _0551_
*598 _0552_
*599 _0553_
*600 _0554_
*601 _0555_
*602 _0556_
*603 _0557_
*604 _0558_
*605 _0559_
*606 _0560_
*607 _0561_
*608 _0562_
*609 _0563_
*610 _0564_
*611 _0565_
*612 _0566_
*613 _0567_
*614 _0568_
*615 _0569_
*616 _0570_
*617 _0571_
*618 _0572_
*619 _0573_
*620 _0574_
*621 _0575_
*622 _0576_
*623 _0577_
*624 _0578_
*625 _0579_
*626 _0580_
*627 _0581_
*628 _0582_
*629 _0583_
*630 _0584_
*631 _0585_
*632 _0586_
*633 _0587_
*634 _0588_
*635 _0589_
*636 _0590_
*637 _0591_
*638 _0592_
*639 _0593_
*640 _0594_
*641 _0595_
*642 _0596_
*643 _0597_
*644 _0598_
*645 _0599_
*646 _0600_
*647 _0601_
*648 _0602_
*649 _0603_
*650 _0604_
*651 _0605_
*652 _0606_
*653 _0607_
*654 _0608_
*655 _0609_
*656 _0610_
*657 _0611_
*658 _0612_
*659 _0613_
*660 _0614_
*661 _0615_
*662 _0616_
*663 _0617_
*664 _0618_
*665 _0619_
*666 _0620_
*667 _0621_
*668 _0622_
*669 _0623_
*670 _0624_
*671 _0625_
*672 _0626_
*673 _0627_
*674 _0628_
*675 _0629_
*676 _0630_
*677 _0631_
*678 _0632_
*679 apu_pulse0\.____state_0\[0\]
*680 apu_pulse0\.____state_0\[10\]
*681 apu_pulse0\.____state_0\[1\]
*682 apu_pulse0\.____state_0\[2\]
*683 apu_pulse0\.____state_0\[3\]
*684 apu_pulse0\.____state_0\[4\]
*685 apu_pulse0\.____state_0\[5\]
*686 apu_pulse0\.____state_0\[6\]
*687 apu_pulse0\.____state_0\[7\]
*688 apu_pulse0\.____state_0\[8\]
*689 apu_pulse0\.____state_0\[9\]
*690 apu_pulse0\.____state_1\[0\]
*691 apu_pulse0\.____state_1\[10\]
*692 apu_pulse0\.____state_1\[1\]
*693 apu_pulse0\.____state_1\[2\]
*694 apu_pulse0\.____state_1\[3\]
*695 apu_pulse0\.____state_1\[4\]
*696 apu_pulse0\.____state_1\[5\]
*697 apu_pulse0\.____state_1\[6\]
*698 apu_pulse0\.____state_1\[7\]
*699 apu_pulse0\.____state_1\[8\]
*700 apu_pulse0\.____state_1\[9\]
*701 apu_pulse0\.____state_2\[0\]
*702 apu_pulse0\.____state_2\[1\]
*703 apu_pulse0\.____state_3\[0\]
*704 apu_pulse0\.____state_3\[1\]
*705 apu_pulse0\.____state_3\[2\]
*706 apu_pulse0\.__apu__duty_r_reg\[0\]
*707 apu_pulse0\.__apu__duty_r_reg\[1\]
*708 apu_pulse0\.__apu__duty_r_valid_reg
*709 apu_pulse0\.__apu__output_s_reg
*710 apu_pulse0\.__apu__output_s_valid_reg
*711 apu_pulse0\.__apu__period_r_reg\[0\]
*712 apu_pulse0\.__apu__period_r_reg\[10\]
*713 apu_pulse0\.__apu__period_r_reg\[1\]
*714 apu_pulse0\.__apu__period_r_reg\[2\]
*715 apu_pulse0\.__apu__period_r_reg\[3\]
*716 apu_pulse0\.__apu__period_r_reg\[4\]
*717 apu_pulse0\.__apu__period_r_reg\[5\]
*718 apu_pulse0\.__apu__period_r_reg\[6\]
*719 apu_pulse0\.__apu__period_r_reg\[7\]
*720 apu_pulse0\.__apu__period_r_reg\[8\]
*721 apu_pulse0\.__apu__period_r_reg\[9\]
*722 apu_pulse0\.__apu__period_r_valid_reg
*723 apu_pulse0\.apu__duty_r_load_en
*724 apu_pulse0\.apu__period_r_load_en
*725 apu_pulse1\.____state_0\[0\]
*726 apu_pulse1\.____state_0\[10\]
*727 apu_pulse1\.____state_0\[1\]
*728 apu_pulse1\.____state_0\[2\]
*729 apu_pulse1\.____state_0\[3\]
*730 apu_pulse1\.____state_0\[4\]
*731 apu_pulse1\.____state_0\[5\]
*732 apu_pulse1\.____state_0\[6\]
*733 apu_pulse1\.____state_0\[7\]
*734 apu_pulse1\.____state_0\[8\]
*735 apu_pulse1\.____state_0\[9\]
*736 apu_pulse1\.____state_1\[0\]
*737 apu_pulse1\.____state_1\[10\]
*738 apu_pulse1\.____state_1\[1\]
*739 apu_pulse1\.____state_1\[2\]
*740 apu_pulse1\.____state_1\[3\]
*741 apu_pulse1\.____state_1\[4\]
*742 apu_pulse1\.____state_1\[5\]
*743 apu_pulse1\.____state_1\[6\]
*744 apu_pulse1\.____state_1\[7\]
*745 apu_pulse1\.____state_1\[8\]
*746 apu_pulse1\.____state_1\[9\]
*747 apu_pulse1\.____state_2\[0\]
*748 apu_pulse1\.____state_2\[1\]
*749 apu_pulse1\.____state_3\[0\]
*750 apu_pulse1\.____state_3\[1\]
*751 apu_pulse1\.____state_3\[2\]
*752 apu_pulse1\.__apu__duty_r_valid_reg
*753 apu_pulse1\.__apu__output_s_reg
*754 apu_pulse1\.__apu__output_s_valid_reg
*755 apu_pulse1\.__apu__period_r_valid_reg
*756 apu_pulse2\.____state_0\[0\]
*757 apu_pulse2\.____state_0\[10\]
*758 apu_pulse2\.____state_0\[1\]
*759 apu_pulse2\.____state_0\[2\]
*760 apu_pulse2\.____state_0\[3\]
*761 apu_pulse2\.____state_0\[4\]
*762 apu_pulse2\.____state_0\[5\]
*763 apu_pulse2\.____state_0\[6\]
*764 apu_pulse2\.____state_0\[7\]
*765 apu_pulse2\.____state_0\[8\]
*766 apu_pulse2\.____state_0\[9\]
*767 apu_pulse2\.____state_1\[0\]
*768 apu_pulse2\.____state_1\[10\]
*769 apu_pulse2\.____state_1\[1\]
*770 apu_pulse2\.____state_1\[2\]
*771 apu_pulse2\.____state_1\[3\]
*772 apu_pulse2\.____state_1\[4\]
*773 apu_pulse2\.____state_1\[5\]
*774 apu_pulse2\.____state_1\[6\]
*775 apu_pulse2\.____state_1\[7\]
*776 apu_pulse2\.____state_1\[8\]
*777 apu_pulse2\.____state_1\[9\]
*778 apu_pulse2\.____state_2\[0\]
*779 apu_pulse2\.____state_2\[1\]
*780 apu_pulse2\.____state_3\[0\]
*781 apu_pulse2\.____state_3\[1\]
*782 apu_pulse2\.____state_3\[2\]
*783 apu_pulse2\.__apu__duty_r_valid_reg
*784 apu_pulse2\.__apu__output_s_reg
*785 apu_pulse2\.__apu__output_s_valid_reg
*786 apu_pulse2\.__apu__period_r_valid_reg
*787 apu_pulse3\.____state_0\[0\]
*788 apu_pulse3\.____state_0\[10\]
*789 apu_pulse3\.____state_0\[1\]
*790 apu_pulse3\.____state_0\[2\]
*791 apu_pulse3\.____state_0\[3\]
*792 apu_pulse3\.____state_0\[4\]
*793 apu_pulse3\.____state_0\[5\]
*794 apu_pulse3\.____state_0\[6\]
*795 apu_pulse3\.____state_0\[7\]
*796 apu_pulse3\.____state_0\[8\]
*797 apu_pulse3\.____state_0\[9\]
*798 apu_pulse3\.____state_1\[0\]
*799 apu_pulse3\.____state_1\[10\]
*800 apu_pulse3\.____state_1\[1\]
*801 apu_pulse3\.____state_1\[2\]
*802 apu_pulse3\.____state_1\[3\]
*803 apu_pulse3\.____state_1\[4\]
*804 apu_pulse3\.____state_1\[5\]
*805 apu_pulse3\.____state_1\[6\]
*806 apu_pulse3\.____state_1\[7\]
*807 apu_pulse3\.____state_1\[8\]
*808 apu_pulse3\.____state_1\[9\]
*809 apu_pulse3\.____state_2\[0\]
*810 apu_pulse3\.____state_2\[1\]
*811 apu_pulse3\.____state_3\[0\]
*812 apu_pulse3\.____state_3\[1\]
*813 apu_pulse3\.____state_3\[2\]
*814 apu_pulse3\.__apu__duty_r_valid_reg
*815 apu_pulse3\.__apu__output_s_reg
*816 apu_pulse3\.__apu__output_s_valid_reg
*817 apu_pulse3\.__apu__period_r_valid_reg
*818 apu_pulse4\.____state_0\[0\]
*819 apu_pulse4\.____state_0\[10\]
*820 apu_pulse4\.____state_0\[1\]
*821 apu_pulse4\.____state_0\[2\]
*822 apu_pulse4\.____state_0\[3\]
*823 apu_pulse4\.____state_0\[4\]
*824 apu_pulse4\.____state_0\[5\]
*825 apu_pulse4\.____state_0\[6\]
*826 apu_pulse4\.____state_0\[7\]
*827 apu_pulse4\.____state_0\[8\]
*828 apu_pulse4\.____state_0\[9\]
*829 apu_pulse4\.____state_1\[0\]
*830 apu_pulse4\.____state_1\[10\]
*831 apu_pulse4\.____state_1\[1\]
*832 apu_pulse4\.____state_1\[2\]
*833 apu_pulse4\.____state_1\[3\]
*834 apu_pulse4\.____state_1\[4\]
*835 apu_pulse4\.____state_1\[5\]
*836 apu_pulse4\.____state_1\[6\]
*837 apu_pulse4\.____state_1\[7\]
*838 apu_pulse4\.____state_1\[8\]
*839 apu_pulse4\.____state_1\[9\]
*840 apu_pulse4\.____state_2\[0\]
*841 apu_pulse4\.____state_2\[1\]
*842 apu_pulse4\.____state_3\[0\]
*843 apu_pulse4\.____state_3\[1\]
*844 apu_pulse4\.____state_3\[2\]
*845 apu_pulse4\.__apu__duty_r_valid_reg
*846 apu_pulse4\.__apu__output_s_reg
*847 apu_pulse4\.__apu__output_s_valid_reg
*848 apu_pulse4\.__apu__period_r_valid_reg
*849 clknet_0_clk
*850 clknet_4_0_0_clk
*851 clknet_4_10_0_clk
*852 clknet_4_11_0_clk
*853 clknet_4_12_0_clk
*854 clknet_4_13_0_clk
*855 clknet_4_14_0_clk
*856 clknet_4_15_0_clk
*857 clknet_4_1_0_clk
*858 clknet_4_2_0_clk
*859 clknet_4_3_0_clk
*860 clknet_4_4_0_clk
*861 clknet_4_5_0_clk
*862 clknet_4_6_0_clk
*863 clknet_4_7_0_clk
*864 clknet_4_8_0_clk
*865 clknet_4_9_0_clk
*866 net1
*867 net10
*868 net11
*869 net12
*870 net13
*871 net14
*872 net15
*873 net16
*874 net17
*875 net2
*876 net3
*877 net4
*878 net5
*879 net6
*880 net7
*881 net8
*882 net9
*883 ANTENNA_1
*884 ANTENNA_10
*885 ANTENNA_11
*886 ANTENNA_12
*887 ANTENNA_13
*888 ANTENNA_14
*889 ANTENNA_15
*890 ANTENNA_16
*891 ANTENNA_17
*892 ANTENNA_18
*893 ANTENNA_19
*894 ANTENNA_2
*895 ANTENNA_20
*896 ANTENNA_21
*897 ANTENNA_22
*898 ANTENNA_23
*899 ANTENNA_24
*900 ANTENNA_25
*901 ANTENNA_26
*902 ANTENNA_27
*903 ANTENNA_28
*904 ANTENNA_29
*905 ANTENNA_3
*906 ANTENNA_30
*907 ANTENNA_31
*908 ANTENNA_32
*909 ANTENNA_33
*910 ANTENNA_34
*911 ANTENNA_35
*912 ANTENNA_36
*913 ANTENNA_4
*914 ANTENNA_5
*915 ANTENNA_6
*916 ANTENNA_7
*917 ANTENNA_8
*918 ANTENNA_9
*919 FILLER_0_104
*920 FILLER_0_113
*921 FILLER_0_118
*922 FILLER_0_12
*923 FILLER_0_125
*924 FILLER_0_137
*925 FILLER_0_141
*926 FILLER_0_153
*927 FILLER_0_165
*928 FILLER_0_169
*929 FILLER_0_181
*930 FILLER_0_19
*931 FILLER_0_193
*932 FILLER_0_197
*933 FILLER_0_209
*934 FILLER_0_221
*935 FILLER_0_225
*936 FILLER_0_237
*937 FILLER_0_245
*938 FILLER_0_250
*939 FILLER_0_253
*940 FILLER_0_259
*941 FILLER_0_26
*942 FILLER_0_264
*943 FILLER_0_271
*944 FILLER_0_278
*945 FILLER_0_281
*946 FILLER_0_287
*947 FILLER_0_29
*948 FILLER_0_291
*949 FILLER_0_296
*950 FILLER_0_3
*951 FILLER_0_300
*952 FILLER_0_305
*953 FILLER_0_309
*954 FILLER_0_314
*955 FILLER_0_318
*956 FILLER_0_323
*957 FILLER_0_331
*958 FILLER_0_335
*959 FILLER_0_337
*960 FILLER_0_40
*961 FILLER_0_47
*962 FILLER_0_54
*963 FILLER_0_57
*964 FILLER_0_64
*965 FILLER_0_71
*966 FILLER_0_78
*967 FILLER_0_85
*968 FILLER_0_90
*969 FILLER_0_97
*970 FILLER_10_100
*971 FILLER_10_109
*972 FILLER_10_122
*973 FILLER_10_128
*974 FILLER_10_138
*975 FILLER_10_141
*976 FILLER_10_148
*977 FILLER_10_152
*978 FILLER_10_160
*979 FILLER_10_169
*980 FILLER_10_177
*981 FILLER_10_194
*982 FILLER_10_197
*983 FILLER_10_201
*984 FILLER_10_21
*985 FILLER_10_210
*986 FILLER_10_232
*987 FILLER_10_238
*988 FILLER_10_248
*989 FILLER_10_253
*990 FILLER_10_259
*991 FILLER_10_27
*992 FILLER_10_279
*993 FILLER_10_29
*994 FILLER_10_293
*995 FILLER_10_3
*996 FILLER_10_306
*997 FILLER_10_309
*998 FILLER_10_316
*999 FILLER_10_336
*1000 FILLER_10_37
*1001 FILLER_10_41
*1002 FILLER_10_48
*1003 FILLER_10_54
*1004 FILLER_10_63
*1005 FILLER_10_67
*1006 FILLER_10_75
*1007 FILLER_10_82
*1008 FILLER_10_85
*1009 FILLER_10_96
*1010 FILLER_11_100
*1011 FILLER_11_104
*1012 FILLER_11_11
*1013 FILLER_11_110
*1014 FILLER_11_113
*1015 FILLER_11_123
*1016 FILLER_11_130
*1017 FILLER_11_150
*1018 FILLER_11_166
*1019 FILLER_11_169
*1020 FILLER_11_177
*1021 FILLER_11_186
*1022 FILLER_11_19
*1023 FILLER_11_194
*1024 FILLER_11_203
*1025 FILLER_11_216
*1026 FILLER_11_225
*1027 FILLER_11_235
*1028 FILLER_11_239
*1029 FILLER_11_25
*1030 FILLER_11_256
*1031 FILLER_11_270
*1032 FILLER_11_278
*1033 FILLER_11_281
*1034 FILLER_11_291
*1035 FILLER_11_3
*1036 FILLER_11_300
*1037 FILLER_11_313
*1038 FILLER_11_326
*1039 FILLER_11_334
*1040 FILLER_11_337
*1041 FILLER_11_45
*1042 FILLER_11_54
*1043 FILLER_11_57
*1044 FILLER_11_68
*1045 FILLER_11_80
*1046 FILLER_12_119
*1047 FILLER_12_127
*1048 FILLER_12_138
*1049 FILLER_12_141
*1050 FILLER_12_148
*1051 FILLER_12_152
*1052 FILLER_12_158
*1053 FILLER_12_170
*1054 FILLER_12_194
*1055 FILLER_12_197
*1056 FILLER_12_207
*1057 FILLER_12_21
*1058 FILLER_12_229
*1059 FILLER_12_241
*1060 FILLER_12_25
*1061 FILLER_12_250
*1062 FILLER_12_253
*1063 FILLER_12_257
*1064 FILLER_12_274
*1065 FILLER_12_285
*1066 FILLER_12_29
*1067 FILLER_12_298
*1068 FILLER_12_3
*1069 FILLER_12_306
*1070 FILLER_12_309
*1071 FILLER_12_333
*1072 FILLER_12_337
*1073 FILLER_12_35
*1074 FILLER_12_44
*1075 FILLER_12_55
*1076 FILLER_12_64
*1077 FILLER_12_68
*1078 FILLER_12_75
*1079 FILLER_12_82
*1080 FILLER_12_85
*1081 FILLER_12_99
*1082 FILLER_13_110
*1083 FILLER_13_113
*1084 FILLER_13_123
*1085 FILLER_13_143
*1086 FILLER_13_163
*1087 FILLER_13_167
*1088 FILLER_13_169
*1089 FILLER_13_181
*1090 FILLER_13_191
*1091 FILLER_13_203
*1092 FILLER_13_217
*1093 FILLER_13_223
*1094 FILLER_13_225
*1095 FILLER_13_247
*1096 FILLER_13_251
*1097 FILLER_13_260
*1098 FILLER_13_268
*1099 FILLER_13_278
*1100 FILLER_13_281
*1101 FILLER_13_286
*1102 FILLER_13_29
*1103 FILLER_13_298
*1104 FILLER_13_3
*1105 FILLER_13_311
*1106 FILLER_13_317
*1107 FILLER_13_334
*1108 FILLER_13_337
*1109 FILLER_13_49
*1110 FILLER_13_55
*1111 FILLER_13_57
*1112 FILLER_13_65
*1113 FILLER_13_77
*1114 FILLER_13_9
*1115 FILLER_13_95
*1116 FILLER_13_99
*1117 FILLER_14_105
*1118 FILLER_14_113
*1119 FILLER_14_123
*1120 FILLER_14_138
*1121 FILLER_14_141
*1122 FILLER_14_146
*1123 FILLER_14_159
*1124 FILLER_14_172
*1125 FILLER_14_192
*1126 FILLER_14_197
*1127 FILLER_14_208
*1128 FILLER_14_216
*1129 FILLER_14_22
*1130 FILLER_14_220
*1131 FILLER_14_230
*1132 FILLER_14_250
*1133 FILLER_14_253
*1134 FILLER_14_271
*1135 FILLER_14_279
*1136 FILLER_14_29
*1137 FILLER_14_297
*1138 FILLER_14_3
*1139 FILLER_14_306
*1140 FILLER_14_309
*1141 FILLER_14_329
*1142 FILLER_14_336
*1143 FILLER_14_40
*1144 FILLER_14_44
*1145 FILLER_14_50
*1146 FILLER_14_59
*1147 FILLER_14_63
*1148 FILLER_14_69
*1149 FILLER_14_82
*1150 FILLER_14_85
*1151 FILLER_14_92
*1152 FILLER_15_11
*1153 FILLER_15_110
*1154 FILLER_15_113
*1155 FILLER_15_118
*1156 FILLER_15_138
*1157 FILLER_15_158
*1158 FILLER_15_166
*1159 FILLER_15_169
*1160 FILLER_15_182
*1161 FILLER_15_191
*1162 FILLER_15_195
*1163 FILLER_15_212
*1164 FILLER_15_216
*1165 FILLER_15_222
*1166 FILLER_15_225
*1167 FILLER_15_24
*1168 FILLER_15_243
*1169 FILLER_15_247
*1170 FILLER_15_258
*1171 FILLER_15_268
*1172 FILLER_15_278
*1173 FILLER_15_281
*1174 FILLER_15_289
*1175 FILLER_15_298
*1176 FILLER_15_3
*1177 FILLER_15_306
*1178 FILLER_15_315
*1179 FILLER_15_327
*1180 FILLER_15_334
*1181 FILLER_15_337
*1182 FILLER_15_36
*1183 FILLER_15_46
*1184 FILLER_15_54
*1185 FILLER_15_57
*1186 FILLER_15_65
*1187 FILLER_15_89
*1188 FILLER_15_93
*1189 FILLER_16_110
*1190 FILLER_16_114
*1191 FILLER_16_131
*1192 FILLER_16_138
*1193 FILLER_16_141
*1194 FILLER_16_154
*1195 FILLER_16_174
*1196 FILLER_16_194
*1197 FILLER_16_197
*1198 FILLER_16_203
*1199 FILLER_16_209
*1200 FILLER_16_221
*1201 FILLER_16_236
*1202 FILLER_16_24
*1203 FILLER_16_246
*1204 FILLER_16_253
*1205 FILLER_16_259
*1206 FILLER_16_276
*1207 FILLER_16_280
*1208 FILLER_16_29
*1209 FILLER_16_297
*1210 FILLER_16_3
*1211 FILLER_16_306
*1212 FILLER_16_309
*1213 FILLER_16_315
*1214 FILLER_16_335
*1215 FILLER_16_39
*1216 FILLER_16_49
*1217 FILLER_16_57
*1218 FILLER_16_66
*1219 FILLER_16_7
*1220 FILLER_16_81
*1221 FILLER_16_85
*1222 FILLER_16_89
*1223 FILLER_16_98
*1224 FILLER_17_108
*1225 FILLER_17_113
*1226 FILLER_17_12
*1227 FILLER_17_120
*1228 FILLER_17_132
*1229 FILLER_17_152
*1230 FILLER_17_162
*1231 FILLER_17_169
*1232 FILLER_17_178
*1233 FILLER_17_184
*1234 FILLER_17_190
*1235 FILLER_17_196
*1236 FILLER_17_20
*1237 FILLER_17_202
*1238 FILLER_17_222
*1239 FILLER_17_225
*1240 FILLER_17_243
*1241 FILLER_17_253
*1242 FILLER_17_263
*1243 FILLER_17_278
*1244 FILLER_17_281
*1245 FILLER_17_294
*1246 FILLER_17_3
*1247 FILLER_17_30
*1248 FILLER_17_302
*1249 FILLER_17_313
*1250 FILLER_17_317
*1251 FILLER_17_334
*1252 FILLER_17_337
*1253 FILLER_17_38
*1254 FILLER_17_48
*1255 FILLER_17_57
*1256 FILLER_17_61
*1257 FILLER_17_78
*1258 FILLER_17_88
*1259 FILLER_18_105
*1260 FILLER_18_117
*1261 FILLER_18_137
*1262 FILLER_18_141
*1263 FILLER_18_148
*1264 FILLER_18_168
*1265 FILLER_18_174
*1266 FILLER_18_180
*1267 FILLER_18_190
*1268 FILLER_18_197
*1269 FILLER_18_205
*1270 FILLER_18_215
*1271 FILLER_18_22
*1272 FILLER_18_224
*1273 FILLER_18_230
*1274 FILLER_18_237
*1275 FILLER_18_247
*1276 FILLER_18_251
*1277 FILLER_18_253
*1278 FILLER_18_263
*1279 FILLER_18_267
*1280 FILLER_18_284
*1281 FILLER_18_288
*1282 FILLER_18_29
*1283 FILLER_18_295
*1284 FILLER_18_3
*1285 FILLER_18_305
*1286 FILLER_18_309
*1287 FILLER_18_315
*1288 FILLER_18_324
*1289 FILLER_18_336
*1290 FILLER_18_40
*1291 FILLER_18_50
*1292 FILLER_18_65
*1293 FILLER_18_80
*1294 FILLER_18_85
*1295 FILLER_18_92
*1296 FILLER_19_104
*1297 FILLER_19_113
*1298 FILLER_19_131
*1299 FILLER_19_137
*1300 FILLER_19_154
*1301 FILLER_19_158
*1302 FILLER_19_166
*1303 FILLER_19_169
*1304 FILLER_19_183
*1305 FILLER_19_195
*1306 FILLER_19_202
*1307 FILLER_19_22
*1308 FILLER_19_222
*1309 FILLER_19_225
*1310 FILLER_19_231
*1311 FILLER_19_243
*1312 FILLER_19_252
*1313 FILLER_19_258
*1314 FILLER_19_267
*1315 FILLER_19_276
*1316 FILLER_19_281
*1317 FILLER_19_291
*1318 FILLER_19_3
*1319 FILLER_19_305
*1320 FILLER_19_314
*1321 FILLER_19_334
*1322 FILLER_19_337
*1323 FILLER_19_42
*1324 FILLER_19_54
*1325 FILLER_19_57
*1326 FILLER_19_66
*1327 FILLER_19_70
*1328 FILLER_19_79
*1329 FILLER_19_91
*1330 FILLER_1_10
*1331 FILLER_1_106
*1332 FILLER_1_113
*1333 FILLER_1_118
*1334 FILLER_1_130
*1335 FILLER_1_14
*1336 FILLER_1_142
*1337 FILLER_1_154
*1338 FILLER_1_166
*1339 FILLER_1_169
*1340 FILLER_1_181
*1341 FILLER_1_193
*1342 FILLER_1_205
*1343 FILLER_1_21
*1344 FILLER_1_217
*1345 FILLER_1_223
*1346 FILLER_1_225
*1347 FILLER_1_237
*1348 FILLER_1_243
*1349 FILLER_1_247
*1350 FILLER_1_251
*1351 FILLER_1_255
*1352 FILLER_1_259
*1353 FILLER_1_26
*1354 FILLER_1_264
*1355 FILLER_1_269
*1356 FILLER_1_273
*1357 FILLER_1_278
*1358 FILLER_1_281
*1359 FILLER_1_286
*1360 FILLER_1_291
*1361 FILLER_1_296
*1362 FILLER_1_3
*1363 FILLER_1_302
*1364 FILLER_1_306
*1365 FILLER_1_311
*1366 FILLER_1_319
*1367 FILLER_1_32
*1368 FILLER_1_325
*1369 FILLER_1_330
*1370 FILLER_1_337
*1371 FILLER_1_36
*1372 FILLER_1_43
*1373 FILLER_1_49
*1374 FILLER_1_53
*1375 FILLER_1_57
*1376 FILLER_1_62
*1377 FILLER_1_69
*1378 FILLER_1_78
*1379 FILLER_1_85
*1380 FILLER_1_92
*1381 FILLER_1_99
*1382 FILLER_20_107
*1383 FILLER_20_113
*1384 FILLER_20_123
*1385 FILLER_20_131
*1386 FILLER_20_138
*1387 FILLER_20_141
*1388 FILLER_20_163
*1389 FILLER_20_176
*1390 FILLER_20_184
*1391 FILLER_20_194
*1392 FILLER_20_197
*1393 FILLER_20_206
*1394 FILLER_20_21
*1395 FILLER_20_210
*1396 FILLER_20_219
*1397 FILLER_20_227
*1398 FILLER_20_244
*1399 FILLER_20_253
*1400 FILLER_20_260
*1401 FILLER_20_27
*1402 FILLER_20_282
*1403 FILLER_20_29
*1404 FILLER_20_294
*1405 FILLER_20_298
*1406 FILLER_20_3
*1407 FILLER_20_305
*1408 FILLER_20_309
*1409 FILLER_20_316
*1410 FILLER_20_336
*1411 FILLER_20_37
*1412 FILLER_20_41
*1413 FILLER_20_58
*1414 FILLER_20_66
*1415 FILLER_20_77
*1416 FILLER_20_83
*1417 FILLER_20_85
*1418 FILLER_21_110
*1419 FILLER_21_113
*1420 FILLER_21_119
*1421 FILLER_21_13
*1422 FILLER_21_136
*1423 FILLER_21_156
*1424 FILLER_21_166
*1425 FILLER_21_169
*1426 FILLER_21_179
*1427 FILLER_21_186
*1428 FILLER_21_206
*1429 FILLER_21_215
*1430 FILLER_21_222
*1431 FILLER_21_225
*1432 FILLER_21_231
*1433 FILLER_21_24
*1434 FILLER_21_251
*1435 FILLER_21_260
*1436 FILLER_21_264
*1437 FILLER_21_273
*1438 FILLER_21_279
*1439 FILLER_21_281
*1440 FILLER_21_285
*1441 FILLER_21_295
*1442 FILLER_21_3
*1443 FILLER_21_303
*1444 FILLER_21_316
*1445 FILLER_21_32
*1446 FILLER_21_329
*1447 FILLER_21_335
*1448 FILLER_21_337
*1449 FILLER_21_50
*1450 FILLER_21_57
*1451 FILLER_21_63
*1452 FILLER_21_83
*1453 FILLER_21_90
*1454 FILLER_22_104
*1455 FILLER_22_122
*1456 FILLER_22_134
*1457 FILLER_22_141
*1458 FILLER_22_147
*1459 FILLER_22_167
*1460 FILLER_22_191
*1461 FILLER_22_195
*1462 FILLER_22_197
*1463 FILLER_22_202
*1464 FILLER_22_21
*1465 FILLER_22_215
*1466 FILLER_22_219
*1467 FILLER_22_236
*1468 FILLER_22_250
*1469 FILLER_22_253
*1470 FILLER_22_264
*1471 FILLER_22_27
*1472 FILLER_22_277
*1473 FILLER_22_283
*1474 FILLER_22_29
*1475 FILLER_22_3
*1476 FILLER_22_300
*1477 FILLER_22_309
*1478 FILLER_22_316
*1479 FILLER_22_336
*1480 FILLER_22_38
*1481 FILLER_22_46
*1482 FILLER_22_55
*1483 FILLER_22_67
*1484 FILLER_22_80
*1485 FILLER_22_85
*1486 FILLER_22_96
*1487 FILLER_23_10
*1488 FILLER_23_110
*1489 FILLER_23_113
*1490 FILLER_23_120
*1491 FILLER_23_140
*1492 FILLER_23_154
*1493 FILLER_23_166
*1494 FILLER_23_169
*1495 FILLER_23_175
*1496 FILLER_23_186
*1497 FILLER_23_19
*1498 FILLER_23_206
*1499 FILLER_23_218
*1500 FILLER_23_225
*1501 FILLER_23_236
*1502 FILLER_23_245
*1503 FILLER_23_255
*1504 FILLER_23_26
*1505 FILLER_23_275
*1506 FILLER_23_279
*1507 FILLER_23_281
*1508 FILLER_23_290
*1509 FILLER_23_3
*1510 FILLER_23_30
*1511 FILLER_23_303
*1512 FILLER_23_316
*1513 FILLER_23_328
*1514 FILLER_23_337
*1515 FILLER_23_48
*1516 FILLER_23_57
*1517 FILLER_23_62
*1518 FILLER_23_71
*1519 FILLER_23_91
*1520 FILLER_23_99
*1521 FILLER_24_108
*1522 FILLER_24_120
*1523 FILLER_24_128
*1524 FILLER_24_138
*1525 FILLER_24_141
*1526 FILLER_24_159
*1527 FILLER_24_167
*1528 FILLER_24_185
*1529 FILLER_24_194
*1530 FILLER_24_197
*1531 FILLER_24_21
*1532 FILLER_24_215
*1533 FILLER_24_219
*1534 FILLER_24_229
*1535 FILLER_24_233
*1536 FILLER_24_250
*1537 FILLER_24_253
*1538 FILLER_24_264
*1539 FILLER_24_27
*1540 FILLER_24_284
*1541 FILLER_24_29
*1542 FILLER_24_297
*1543 FILLER_24_3
*1544 FILLER_24_306
*1545 FILLER_24_309
*1546 FILLER_24_315
*1547 FILLER_24_335
*1548 FILLER_24_34
*1549 FILLER_24_43
*1550 FILLER_24_56
*1551 FILLER_24_69
*1552 FILLER_24_81
*1553 FILLER_24_85
*1554 FILLER_24_95
*1555 FILLER_25_101
*1556 FILLER_25_11
*1557 FILLER_25_110
*1558 FILLER_25_113
*1559 FILLER_25_117
*1560 FILLER_25_134
*1561 FILLER_25_147
*1562 FILLER_25_15
*1563 FILLER_25_151
*1564 FILLER_25_161
*1565 FILLER_25_167
*1566 FILLER_25_169
*1567 FILLER_25_180
*1568 FILLER_25_197
*1569 FILLER_25_205
*1570 FILLER_25_222
*1571 FILLER_25_225
*1572 FILLER_25_232
*1573 FILLER_25_241
*1574 FILLER_25_25
*1575 FILLER_25_253
*1576 FILLER_25_257
*1577 FILLER_25_263
*1578 FILLER_25_278
*1579 FILLER_25_281
*1580 FILLER_25_297
*1581 FILLER_25_3
*1582 FILLER_25_317
*1583 FILLER_25_329
*1584 FILLER_25_335
*1585 FILLER_25_337
*1586 FILLER_25_45
*1587 FILLER_25_54
*1588 FILLER_25_57
*1589 FILLER_25_65
*1590 FILLER_25_80
*1591 FILLER_25_84
*1592 FILLER_26_115
*1593 FILLER_26_128
*1594 FILLER_26_138
*1595 FILLER_26_141
*1596 FILLER_26_149
*1597 FILLER_26_16
*1598 FILLER_26_161
*1599 FILLER_26_185
*1600 FILLER_26_194
*1601 FILLER_26_197
*1602 FILLER_26_207
*1603 FILLER_26_222
*1604 FILLER_26_242
*1605 FILLER_26_250
*1606 FILLER_26_253
*1607 FILLER_26_26
*1608 FILLER_26_272
*1609 FILLER_26_284
*1610 FILLER_26_288
*1611 FILLER_26_29
*1612 FILLER_26_3
*1613 FILLER_26_305
*1614 FILLER_26_309
*1615 FILLER_26_316
*1616 FILLER_26_336
*1617 FILLER_26_40
*1618 FILLER_26_51
*1619 FILLER_26_62
*1620 FILLER_26_82
*1621 FILLER_26_85
*1622 FILLER_26_9
*1623 FILLER_26_95
*1624 FILLER_27_103
*1625 FILLER_27_110
*1626 FILLER_27_113
*1627 FILLER_27_119
*1628 FILLER_27_136
*1629 FILLER_27_151
*1630 FILLER_27_162
*1631 FILLER_27_169
*1632 FILLER_27_179
*1633 FILLER_27_187
*1634 FILLER_27_204
*1635 FILLER_27_21
*1636 FILLER_27_210
*1637 FILLER_27_222
*1638 FILLER_27_225
*1639 FILLER_27_242
*1640 FILLER_27_250
*1641 FILLER_27_260
*1642 FILLER_27_266
*1643 FILLER_27_278
*1644 FILLER_27_281
*1645 FILLER_27_292
*1646 FILLER_27_3
*1647 FILLER_27_304
*1648 FILLER_27_314
*1649 FILLER_27_32
*1650 FILLER_27_334
*1651 FILLER_27_337
*1652 FILLER_27_42
*1653 FILLER_27_46
*1654 FILLER_27_54
*1655 FILLER_27_57
*1656 FILLER_27_63
*1657 FILLER_27_75
*1658 FILLER_27_95
*1659 FILLER_28_118
*1660 FILLER_28_135
*1661 FILLER_28_139
*1662 FILLER_28_141
*1663 FILLER_28_159
*1664 FILLER_28_167