*SPEF "ieee 1481-1999"
*DESIGN "tt_um_thorkn_vgaclock"
*DATE "11:11:11 Fri 11 11, 1111"
*VENDOR "OpenRCX"
*PROGRAM "Parallel Extraction"
*VERSION "1.0"
*DESIGN_FLOW "NAME_SCOPE LOCAL" "PIN_CAP NONE"
*DIVIDER /
*DELIMITER :
*BUS_DELIMITER []
*T_UNIT 1 NS
*C_UNIT 1 PF
*R_UNIT 1 OHM
*L_UNIT 1 HENRY

*NAME_MAP
*1 clk
*2 ena
*3 rst_n
*4 ui_in[0]
*5 ui_in[1]
*6 ui_in[2]
*7 ui_in[3]
*8 ui_in[4]
*9 ui_in[5]
*10 ui_in[6]
*11 ui_in[7]
*12 uio_in[0]
*13 uio_in[1]
*14 uio_in[2]
*15 uio_in[3]
*16 uio_in[4]
*17 uio_in[5]
*18 uio_in[6]
*19 uio_in[7]
*20 net10
*21 net11
*22 net12
*23 net13
*24 net14
*25 net15
*26 net16
*27 net17
*28 net18
*29 net19
*30 net20
*31 net21
*32 net22
*33 net23
*34 net24
*35 net25
*36 uo_out[0]
*37 uo_out[1]
*38 uo_out[2]
*39 uo_out[3]
*40 uo_out[4]
*41 net26
*42 net27
*43 net28
*46 _000_
*47 _001_
*48 _002_
*49 _003_
*50 _004_
*51 _005_
*52 _006_
*53 _007_
*54 _008_
*55 _009_
*56 _010_
*57 _011_
*58 _012_
*59 _013_
*60 _014_
*61 _015_
*62 _016_
*63 _017_
*64 _018_
*65 _019_
*66 _020_
*67 _021_
*68 _022_
*69 _023_
*70 _024_
*71 _025_
*72 _026_
*73 _027_
*74 _028_
*75 _029_
*76 _030_
*77 _031_
*78 _032_
*79 _033_
*80 _034_
*81 _035_
*82 _036_
*83 _037_
*84 _038_
*85 _039_
*86 _040_
*87 _041_
*88 _042_
*89 _043_
*90 _044_
*91 _045_
*92 _046_
*93 _047_
*94 _048_
*95 _049_
*96 _050_
*97 _051_
*98 _052_
*99 _053_
*100 _054_
*101 _055_
*102 _056_
*103 _057_
*104 _058_
*105 _059_
*106 _060_
*107 _061_
*108 _062_
*109 _063_
*110 _064_
*111 _065_
*112 _066_
*113 _067_
*114 _068_
*115 _069_
*116 _070_
*117 _071_
*118 _072_
*119 _073_
*120 _074_
*121 _075_
*122 _076_
*123 _077_
*124 _078_
*125 _079_
*126 _080_
*127 _081_
*128 _082_
*129 _083_
*130 _084_
*131 _085_
*132 _086_
*133 _087_
*134 _088_
*135 _089_
*136 _090_
*137 _091_
*138 _092_
*139 _093_
*140 _094_
*141 _095_
*142 _096_
*143 _097_
*144 _098_
*145 _099_
*146 _100_
*147 _101_
*148 _102_
*149 _103_
*150 _104_
*151 _105_
*152 _106_
*153 _107_
*154 _108_
*155 _109_
*156 _110_
*157 _111_
*158 _112_
*159 _113_
*160 _114_
*161 _115_
*162 _116_
*163 _117_
*164 _118_
*165 _119_
*166 _120_
*167 _121_
*168 _122_
*169 _123_
*170 _124_
*171 _125_
*172 _126_
*173 _127_
*174 _128_
*175 _129_
*176 _130_
*177 _131_
*178 _132_
*179 _133_
*180 _134_
*181 _135_
*182 _136_
*183 _137_
*184 _138_
*185 _139_
*186 _140_
*187 _141_
*188 _142_
*189 _143_
*190 _144_
*191 _145_
*192 _146_
*193 _147_
*194 _148_
*195 _149_
*196 _150_
*197 _151_
*198 _152_
*199 _153_
*200 _154_
*201 _155_
*202 _156_
*203 _157_
*204 _158_
*205 _159_
*206 _160_
*207 _161_
*208 _162_
*209 _163_
*210 _164_
*211 _165_
*212 _166_
*213 _167_
*214 _168_
*215 _169_
*216 _170_
*217 _171_
*218 _172_
*219 _173_
*220 _174_
*221 _175_
*222 _176_
*223 _177_
*224 _178_
*225 _179_
*226 _180_
*227 _181_
*228 _182_
*229 _183_
*230 _184_
*231 _185_
*232 _186_
*233 _187_
*234 _188_
*235 _189_
*236 _190_
*237 _191_
*238 _192_
*239 _193_
*240 _194_
*241 _195_
*242 _196_
*243 _197_
*244 _198_
*245 _199_
*246 _200_
*247 _201_
*248 _202_
*249 _203_
*250 _204_
*251 _205_
*252 _206_
*253 _207_
*254 _208_
*255 _209_
*256 _210_
*257 _211_
*258 _212_
*259 _213_
*260 _214_
*261 _215_
*262 _216_
*263 _217_
*264 _218_
*265 _219_
*266 _220_
*267 _221_
*268 _222_
*269 _223_
*270 _224_
*271 _225_
*272 _226_
*273 _227_
*274 _228_
*275 _229_
*276 _230_
*277 _231_
*278 _232_
*279 _233_
*280 _234_
*281 _235_
*282 _236_
*283 _237_
*284 _238_
*285 _239_
*286 _240_
*287 _241_
*288 _242_
*289 _243_
*290 _244_
*291 _245_
*292 _246_
*293 _247_
*294 _248_
*295 _249_
*296 _250_
*297 _251_
*298 _252_
*299 _253_
*300 _254_
*301 _255_
*302 _256_
*303 _257_
*304 _258_
*305 _259_
*306 _260_
*307 _261_
*308 _262_
*309 _263_
*310 _264_
*311 _265_
*312 _266_
*313 _267_
*314 _268_
*315 _269_
*316 _270_
*317 _271_
*318 _272_
*319 _273_
*320 _274_
*321 _275_
*322 _276_
*323 _277_
*324 _278_
*325 _279_
*326 _280_
*327 _281_
*328 _282_
*329 _283_
*330 _284_
*331 _285_
*332 _286_
*333 _287_
*334 _288_
*335 _289_
*336 _290_
*337 _291_
*338 _292_
*339 _293_
*340 _294_
*341 _295_
*342 _296_
*343 _297_
*344 _298_
*345 _299_
*346 _300_
*347 _301_
*348 _302_
*349 _303_
*350 _304_
*351 _305_
*352 _306_
*353 _307_
*354 _308_
*355 _309_
*356 _310_
*357 _311_
*358 _312_
*359 _313_
*360 _314_
*361 _315_
*362 _316_
*363 _317_
*364 _318_
*365 _319_
*366 _320_
*367 _321_
*368 _322_
*369 _323_
*370 _324_
*371 _325_
*372 _326_
*373 _327_
*374 _328_
*375 _329_
*376 _330_
*377 _331_
*378 _332_
*379 _333_
*380 _334_
*381 _335_
*382 _336_
*383 _337_
*384 _338_
*385 _339_
*386 _340_
*387 _341_
*388 _342_
*389 _343_
*390 _344_
*391 _345_
*392 _346_
*393 _347_
*394 _348_
*395 _349_
*396 _350_
*397 _351_
*398 clknet_0_clk
*399 clknet_3_0__leaf_clk
*400 clknet_3_1__leaf_clk
*401 clknet_3_2__leaf_clk
*402 clknet_3_3__leaf_clk
*403 clknet_3_4__leaf_clk
*404 clknet_3_5__leaf_clk
*405 clknet_3_6__leaf_clk
*406 clknet_3_7__leaf_clk
*407 net1
*408 net2
*409 net3
*410 net4
*411 net5
*412 net6
*413 net7
*414 net8
*415 net9
*416 vga_content\._zz_when_VgaContent_l39\[1\]
*417 vga_content\._zz_when_VgaContent_l45\[1\]
*418 vga_content\._zz_when_VgaContent_l51\[1\]
*419 vga_content\.clock_counters\.c_counter_valueNext\[0\]
*420 vga_content\.clock_counters\.c_counter_valueNext\[10\]
*421 vga_content\.clock_counters\.c_counter_valueNext\[11\]
*422 vga_content\.clock_counters\.c_counter_valueNext\[12\]
*423 vga_content\.clock_counters\.c_counter_valueNext\[13\]
*424 vga_content\.clock_counters\.c_counter_valueNext\[14\]
*425 vga_content\.clock_counters\.c_counter_valueNext\[15\]
*426 vga_content\.clock_counters\.c_counter_valueNext\[16\]
*427 vga_content\.clock_counters\.c_counter_valueNext\[17\]
*428 vga_content\.clock_counters\.c_counter_valueNext\[18\]
*429 vga_content\.clock_counters\.c_counter_valueNext\[19\]
*430 vga_content\.clock_counters\.c_counter_valueNext\[1\]
*431 vga_content\.clock_counters\.c_counter_valueNext\[20\]
*432 vga_content\.clock_counters\.c_counter_valueNext\[21\]
*433 vga_content\.clock_counters\.c_counter_valueNext\[22\]
*434 vga_content\.clock_counters\.c_counter_valueNext\[23\]
*435 vga_content\.clock_counters\.c_counter_valueNext\[24\]
*436 vga_content\.clock_counters\.c_counter_valueNext\[2\]
*437 vga_content\.clock_counters\.c_counter_valueNext\[3\]
*438 vga_content\.clock_counters\.c_counter_valueNext\[4\]
*439 vga_content\.clock_counters\.c_counter_valueNext\[5\]
*440 vga_content\.clock_counters\.c_counter_valueNext\[6\]
*441 vga_content\.clock_counters\.c_counter_valueNext\[7\]
*442 vga_content\.clock_counters\.c_counter_valueNext\[8\]
*443 vga_content\.clock_counters\.c_counter_valueNext\[9\]
*444 vga_content\.clock_counters\.c_counter_value\[0\]
*445 vga_content\.clock_counters\.c_counter_value\[10\]
*446 vga_content\.clock_counters\.c_counter_value\[11\]
*447 vga_content\.clock_counters\.c_counter_value\[12\]
*448 vga_content\.clock_counters\.c_counter_value\[13\]
*449 vga_content\.clock_counters\.c_counter_value\[14\]
*450 vga_content\.clock_counters\.c_counter_value\[15\]
*451 vga_content\.clock_counters\.c_counter_value\[16\]
*452 vga_content\.clock_counters\.c_counter_value\[17\]
*453 vga_content\.clock_counters\.c_counter_value\[18\]
*454 vga_content\.clock_counters\.c_counter_value\[19\]
*455 vga_content\.clock_counters\.c_counter_value\[1\]
*456 vga_content\.clock_counters\.c_counter_value\[20\]
*457 vga_content\.clock_counters\.c_counter_value\[21\]
*458 vga_content\.clock_counters\.c_counter_value\[22\]
*459 vga_content\.clock_counters\.c_counter_value\[23\]
*460 vga_content\.clock_counters\.c_counter_value\[24\]
*461 vga_content\.clock_counters\.c_counter_value\[2\]
*462 vga_content\.clock_counters\.c_counter_value\[3\]
*463 vga_content\.clock_counters\.c_counter_value\[4\]
*464 vga_content\.clock_counters\.c_counter_value\[5\]
*465 vga_content\.clock_counters\.c_counter_value\[6\]
*466 vga_content\.clock_counters\.c_counter_value\[7\]
*467 vga_content\.clock_counters\.c_counter_value\[8\]
*468 vga_content\.clock_counters\.c_counter_value\[9\]
*469 vga_content\.clock_counters\.h_counter_valueNext\[0\]
*470 vga_content\.clock_counters\.h_counter_valueNext\[1\]
*471 vga_content\.clock_counters\.h_counter_valueNext\[2\]
*472 vga_content\.clock_counters\.h_counter_valueNext\[3\]
*473 vga_content\.clock_counters\.h_counter_value\[1\]
*474 vga_content\.clock_counters\.h_counter_value\[2\]
*475 vga_content\.clock_counters\.h_counter_value\[3\]
*476 vga_content\.clock_counters\.io_minutes\[1\]
*477 vga_content\.clock_counters\.io_minutes\[2\]
*478 vga_content\.clock_counters\.io_minutes\[3\]
*479 vga_content\.clock_counters\.io_minutes\[4\]
*480 vga_content\.clock_counters\.io_minutes\[5\]
*481 vga_content\.clock_counters\.io_seconds\[1\]
*482 vga_content\.clock_counters\.io_seconds\[2\]
*483 vga_content\.clock_counters\.io_seconds\[3\]
*484 vga_content\.clock_counters\.io_seconds\[4\]
*485 vga_content\.clock_counters\.io_seconds\[5\]
*486 vga_content\.clock_counters\.m_counter_valueNext\[0\]
*487 vga_content\.clock_counters\.m_counter_valueNext\[1\]
*488 vga_content\.clock_counters\.m_counter_valueNext\[2\]
*489 vga_content\.clock_counters\.m_counter_valueNext\[3\]
*490 vga_content\.clock_counters\.m_counter_valueNext\[4\]
*491 vga_content\.clock_counters\.m_counter_valueNext\[5\]
*492 vga_content\.clock_counters\.s_counter_valueNext\[0\]
*493 vga_content\.clock_counters\.s_counter_valueNext\[1\]
*494 vga_content\.clock_counters\.s_counter_valueNext\[2\]
*495 vga_content\.clock_counters\.s_counter_valueNext\[3\]
*496 vga_content\.clock_counters\.s_counter_valueNext\[4\]
*497 vga_content\.clock_counters\.s_counter_valueNext\[5\]
*498 vga_content\.io_b
*499 vga_content\.io_g
*500 vga_content\.io_r
*501 vga_sync_gen\.h_counter_valueNext\[0\]
*502 vga_sync_gen\.h_counter_valueNext\[1\]
*503 vga_sync_gen\.h_counter_valueNext\[2\]
*504 vga_sync_gen\.h_counter_valueNext\[3\]
*505 vga_sync_gen\.h_counter_valueNext\[4\]
*506 vga_sync_gen\.h_counter_valueNext\[5\]
*507 vga_sync_gen\.h_counter_valueNext\[6\]
*508 vga_sync_gen\.h_counter_valueNext\[7\]
*509 vga_sync_gen\.h_counter_valueNext\[8\]
*510 vga_sync_gen\.h_counter_valueNext\[9\]
*511 vga_sync_gen\.h_counter_value\[0\]
*512 vga_sync_gen\.h_counter_value\[1\]
*513 vga_sync_gen\.h_counter_value\[2\]
*514 vga_sync_gen\.h_counter_value\[3\]
*515 vga_sync_gen\.h_counter_value\[4\]
*516 vga_sync_gen\.h_counter_value\[5\]
*517 vga_sync_gen\.h_counter_value\[6\]
*518 vga_sync_gen\.h_counter_value\[7\]
*519 vga_sync_gen\.h_counter_value\[8\]
*520 vga_sync_gen\.h_counter_value\[9\]
*521 vga_sync_gen\.io_h_sync
*522 vga_sync_gen\.io_v_sync
*523 vga_sync_gen\.v_counter_valueNext\[0\]
*524 vga_sync_gen\.v_counter_valueNext\[1\]
*525 vga_sync_gen\.v_counter_valueNext\[2\]
*526 vga_sync_gen\.v_counter_valueNext\[3\]
*527 vga_sync_gen\.v_counter_valueNext\[4\]
*528 vga_sync_gen\.v_counter_valueNext\[5\]
*529 vga_sync_gen\.v_counter_valueNext\[6\]
*530 vga_sync_gen\.v_counter_valueNext\[7\]
*531 vga_sync_gen\.v_counter_valueNext\[8\]
*532 vga_sync_gen\.v_counter_valueNext\[9\]
*533 vga_sync_gen\.v_counter_value\[0\]
*534 vga_sync_gen\.v_counter_value\[1\]
*535 vga_sync_gen\.v_counter_value\[2\]
*536 vga_sync_gen\.v_counter_value\[3\]
*537 vga_sync_gen\.v_counter_value\[4\]
*538 vga_sync_gen\.v_counter_value\[5\]
*539 vga_sync_gen\.v_counter_value\[6\]
*540 vga_sync_gen\.v_counter_value\[7\]
*541 vga_sync_gen\.v_counter_value\[8\]
*542 vga_sync_gen\.v_counter_value\[9\]
*543 FILLER_0_109
*544 FILLER_0_113
*545 FILLER_0_125
*546 FILLER_0_137
*547 FILLER_0_141
*548 FILLER_0_15
*549 FILLER_0_153
*550 FILLER_0_165
*551 FILLER_0_169
*552 FILLER_0_181
*553 FILLER_0_193
*554 FILLER_0_197
*555 FILLER_0_209
*556 FILLER_0_221
*557 FILLER_0_225
*558 FILLER_0_237
*559 FILLER_0_249
*560 FILLER_0_253
*561 FILLER_0_265
*562 FILLER_0_27
*563 FILLER_0_277
*564 FILLER_0_281
*565 FILLER_0_29
*566 FILLER_0_293
*567 FILLER_0_3
*568 FILLER_0_305
*569 FILLER_0_309
*570 FILLER_0_321
*571 FILLER_0_333
*572 FILLER_0_337
*573 FILLER_0_41
*574 FILLER_0_53
*575 FILLER_0_57
*576 FILLER_0_69
*577 FILLER_0_81
*578 FILLER_0_85
*579 FILLER_0_97
*580 FILLER_10_109
*581 FILLER_10_121
*582 FILLER_10_133
*583 FILLER_10_139
*584 FILLER_10_141
*585 FILLER_10_15
*586 FILLER_10_153
*587 FILLER_10_160
*588 FILLER_10_172
*589 FILLER_10_191
*590 FILLER_10_195
*591 FILLER_10_197
*592 FILLER_10_206
*593 FILLER_10_215
*594 FILLER_10_225
*595 FILLER_10_236
*596 FILLER_10_245
*597 FILLER_10_251
*598 FILLER_10_253
*599 FILLER_10_259
*600 FILLER_10_265
*601 FILLER_10_27
*602 FILLER_10_275
*603 FILLER_10_287
*604 FILLER_10_29
*605 FILLER_10_291
*606 FILLER_10_3
*607 FILLER_10_302
*608 FILLER_10_309
*609 FILLER_10_321
*610 FILLER_10_333
*611 FILLER_10_337
*612 FILLER_10_41
*613 FILLER_10_53
*614 FILLER_10_65
*615 FILLER_10_77
*616 FILLER_10_83
*617 FILLER_10_85
*618 FILLER_10_97
*619 FILLER_11_105
*620 FILLER_11_111
*621 FILLER_11_113
*622 FILLER_11_125
*623 FILLER_11_133
*624 FILLER_11_142
*625 FILLER_11_15
*626 FILLER_11_154
*627 FILLER_11_166
*628 FILLER_11_169
*629 FILLER_11_180
*630 FILLER_11_206
*631 FILLER_11_218
*632 FILLER_11_225
*633 FILLER_11_235
*634 FILLER_11_241
*635 FILLER_11_262
*636 FILLER_11_27
*637 FILLER_11_273
*638 FILLER_11_279
*639 FILLER_11_281
*640 FILLER_11_286
*641 FILLER_11_298
*642 FILLER_11_3
*643 FILLER_11_309
*644 FILLER_11_31
*645 FILLER_11_320
*646 FILLER_11_332
*647 FILLER_11_337
*648 FILLER_11_35
*649 FILLER_11_43
*650 FILLER_11_53
*651 FILLER_11_57
*652 FILLER_11_63
*653 FILLER_11_75
*654 FILLER_11_87
*655 FILLER_11_99
*656 FILLER_12_101
*657 FILLER_12_112
*658 FILLER_12_124
*659 FILLER_12_136
*660 FILLER_12_141
*661 FILLER_12_15
*662 FILLER_12_153
*663 FILLER_12_161
*664 FILLER_12_182
*665 FILLER_12_193
*666 FILLER_12_197
*667 FILLER_12_204
*668 FILLER_12_21
*669 FILLER_12_212
*670 FILLER_12_219
*671 FILLER_12_230
*672 FILLER_12_240
*673 FILLER_12_249
*674 FILLER_12_253
*675 FILLER_12_259
*676 FILLER_12_26
*677 FILLER_12_264
*678 FILLER_12_285
*679 FILLER_12_29
*680 FILLER_12_295
*681 FILLER_12_3
*682 FILLER_12_302
*683 FILLER_12_309
*684 FILLER_12_316
*685 FILLER_12_328
*686 FILLER_12_336
*687 FILLER_12_36
*688 FILLER_12_42
*689 FILLER_12_50
*690 FILLER_12_61
*691 FILLER_12_67
*692 FILLER_12_75
*693 FILLER_12_83
*694 FILLER_12_85
*695 FILLER_12_92
*696 FILLER_13_108
*697 FILLER_13_113
*698 FILLER_13_118
*699 FILLER_13_125
*700 FILLER_13_15
*701 FILLER_13_156
*702 FILLER_13_169
*703 FILLER_13_181
*704 FILLER_13_205
*705 FILLER_13_215
*706 FILLER_13_222
*707 FILLER_13_225
*708 FILLER_13_230
*709 FILLER_13_24
*710 FILLER_13_254
*711 FILLER_13_278
*712 FILLER_13_281
*713 FILLER_13_3
*714 FILLER_13_303
*715 FILLER_13_311
*716 FILLER_13_33
*717 FILLER_13_334
*718 FILLER_13_337
*719 FILLER_13_43
*720 FILLER_13_54
*721 FILLER_13_57
*722 FILLER_13_63
*723 FILLER_13_72
*724 FILLER_13_78
*725 FILLER_13_84
*726 FILLER_13_97
*727 FILLER_14_100
*728 FILLER_14_111
*729 FILLER_14_138
*730 FILLER_14_141
*731 FILLER_14_16
*732 FILLER_14_166
*733 FILLER_14_172
*734 FILLER_14_193
*735 FILLER_14_197
*736 FILLER_14_219
*737 FILLER_14_228
*738 FILLER_14_239
*739 FILLER_14_251
*740 FILLER_14_253
*741 FILLER_14_26
*742 FILLER_14_265
*743 FILLER_14_288
*744 FILLER_14_29
*745 FILLER_14_3
*746 FILLER_14_300
*747 FILLER_14_309
*748 FILLER_14_331
*749 FILLER_14_337
*750 FILLER_14_40
*751 FILLER_14_49
*752 FILLER_14_63
*753 FILLER_14_71
*754 FILLER_14_79
*755 FILLER_14_83
*756 FILLER_14_85
*757 FILLER_14_90
*758 FILLER_15_108
*759 FILLER_15_11
*760 FILLER_15_113
*761 FILLER_15_119
*762 FILLER_15_126
*763 FILLER_15_132
*764 FILLER_15_156
*765 FILLER_15_169
*766 FILLER_15_177
*767 FILLER_15_20
*768 FILLER_15_200
*769 FILLER_15_212
*770 FILLER_15_219
*771 FILLER_15_223
*772 FILLER_15_225
*773 FILLER_15_234
*774 FILLER_15_246
*775 FILLER_15_270
*776 FILLER_15_274
*777 FILLER_15_278
*778 FILLER_15_281
*779 FILLER_15_293
*780 FILLER_15_3
*781 FILLER_15_31
*782 FILLER_15_315
*783 FILLER_15_322
*784 FILLER_15_329
*785 FILLER_15_335
*786 FILLER_15_337
*787 FILLER_15_39
*788 FILLER_15_47
*789 FILLER_15_55
*790 FILLER_15_57
*791 FILLER_15_69
*792 FILLER_15_81
*793 FILLER_15_95
*794 FILLER_16_101
*795 FILLER_16_109
*796 FILLER_16_138
*797 FILLER_16_141
*798 FILLER_16_15
*799 FILLER_16_166
*800 FILLER_16_190
*801 FILLER_16_197
*802 FILLER_16_219
*803 FILLER_16_243
*804 FILLER_16_251
*805 FILLER_16_253
*806 FILLER_16_261
*807 FILLER_16_267
*808 FILLER_16_27
*809 FILLER_16_29
*810 FILLER_16_291
*811 FILLER_16_3
*812 FILLER_16_303
*813 FILLER_16_307
*814 FILLER_16_309
*815 FILLER_16_331
*816 FILLER_16_337
*817 FILLER_16_35
*818 FILLER_16_43
*819 FILLER_16_52
*820 FILLER_16_63
*821 FILLER_16_70
*822 FILLER_16_82
*823 FILLER_16_85
*824 FILLER_16_93
*825 FILLER_17_105
*826 FILLER_17_111
*827 FILLER_17_113
*828 FILLER_17_125
*829 FILLER_17_15
*830 FILLER_17_154
*831 FILLER_17_166
*832 FILLER_17_169
*833 FILLER_17_174
*834 FILLER_17_201
*835 FILLER_17_213
*836 FILLER_17_221
*837 FILLER_17_225
*838 FILLER_17_247
*839 FILLER_17_254
*840 FILLER_17_262
*841 FILLER_17_27
*842 FILLER_17_272
*843 FILLER_17_281
*844 FILLER_17_293
*845 FILLER_17_3
*846 FILLER_17_305
*847 FILLER_17_324
*848 FILLER_17_337
*849 FILLER_17_35
*850 FILLER_17_43
*851 FILLER_17_55
*852 FILLER_17_57
*853 FILLER_17_68
*854 FILLER_17_79
*855 FILLER_17_91
*856 FILLER_17_99
*857 FILLER_18_107
*858 FILLER_18_116
*859 FILLER_18_128
*860 FILLER_18_141
*861 FILLER_18_15
*862 FILLER_18_166
*863 FILLER_18_191
*864 FILLER_18_195
*865 FILLER_18_197
*866 FILLER_18_205
*867 FILLER_18_227
*868 FILLER_18_239
*869 FILLER_18_251
*870 FILLER_18_253
*871 FILLER_18_261
*872 FILLER_18_269
*873 FILLER_18_27
*874 FILLER_18_278
*875 FILLER_18_287
*876 FILLER_18_29
*877 FILLER_18_3
*878 FILLER_18_306
*879 FILLER_18_309
*880 FILLER_18_335
*881 FILLER_18_34
*882 FILLER_18_46
*883 FILLER_18_56
*884 FILLER_18_68
*885 FILLER_18_72
*886 FILLER_18_80
*887 FILLER_18_85
*888 FILLER_18_94
*889 FILLER_19_110
*890 FILLER_19_113
*891 FILLER_19_118
*892 FILLER_19_130
*893 FILLER_19_15
*894 FILLER_19_154
*895 FILLER_19_166
*896 FILLER_19_169
*897 FILLER_19_178
*898 FILLER_19_203
*899 FILLER_19_215
*900 FILLER_19_223
*901 FILLER_19_225
*902 FILLER_19_23
*903 FILLER_19_237
*904 FILLER_19_259
*905 FILLER_19_277
*906 FILLER_19_281
*907 FILLER_19_3
*908 FILLER_19_304
*909 FILLER_19_312
*910 FILLER_19_33
*911 FILLER_19_334
*912 FILLER_19_337
*913 FILLER_19_37
*914 FILLER_19_41
*915 FILLER_19_48
*916 FILLER_19_57
*917 FILLER_19_69
*918 FILLER_19_79
*919 FILLER_19_90
*920 FILLER_19_99
*921 FILLER_1_105
*922 FILLER_1_111
*923 FILLER_1_113
*924 FILLER_1_125
*925 FILLER_1_137
*926 FILLER_1_149
*927 FILLER_1_15
*928 FILLER_1_161
*929 FILLER_1_167
*930 FILLER_1_169
*931 FILLER_1_181
*932 FILLER_1_193
*933 FILLER_1_205
*934 FILLER_1_217
*935 FILLER_1_223
*936 FILLER_1_225
*937 FILLER_1_237
*938 FILLER_1_249
*939 FILLER_1_261
*940 FILLER_1_27
*941 FILLER_1_273
*942 FILLER_1_279
*943 FILLER_1_281
*944 FILLER_1_293
*945 FILLER_1_3
*946 FILLER_1_305
*947 FILLER_1_317
*948 FILLER_1_329
*949 FILLER_1_335
*950 FILLER_1_337
*951 FILLER_1_39
*952 FILLER_1_51
*953 FILLER_1_55
*954 FILLER_1_57
*955 FILLER_1_69
*956 FILLER_1_81
*957 FILLER_1_93
*958 FILLER_20_104
*959 FILLER_20_11
*960 FILLER_20_111
*961 FILLER_20_123
*962 FILLER_20_131
*963 FILLER_20_138
*964 FILLER_20_141
*965 FILLER_20_164
*966 FILLER_20_172
*967 FILLER_20_18
*968 FILLER_20_194
*969 FILLER_20_197
*970 FILLER_20_209
*971 FILLER_20_234
*972 FILLER_20_246
*973 FILLER_20_253
*974 FILLER_20_26
*975 FILLER_20_263
*976 FILLER_20_271
*977 FILLER_20_29
*978 FILLER_20_292
*979 FILLER_20_3
*980 FILLER_20_301
*981 FILLER_20_307
*982 FILLER_20_309
*983 FILLER_20_314
*984 FILLER_20_323
*985 FILLER_20_331
*986 FILLER_20_337
*987 FILLER_20_40
*988 FILLER_20_48
*989 FILLER_20_59
*990 FILLER_20_71
*991 FILLER_20_81
*992 FILLER_20_85
*993 FILLER_20_94
*994 FILLER_21_102
*995 FILLER_21_106
*996 FILLER_21_11
*997 FILLER_21_113
*998 FILLER_21_123
*999 FILLER_21_142
*1000 FILLER_21_16
*1001 FILLER_21_166
*1002 FILLER_21_169
*1003 FILLER_21_173
*1004 FILLER_21_197
*1005 FILLER_21_204
*1006 FILLER_21_212
*1007 FILLER_21_222
*1008 FILLER_21_225
*1009 FILLER_21_230
*1010 FILLER_21_238
*1011 FILLER_21_260
*1012 FILLER_21_267
*1013 FILLER_21_278
*1014 FILLER_21_28
*1015 FILLER_21_281
*1016 FILLER_21_289
*1017 FILLER_21_295
*1018 FILLER_21_3
*1019 FILLER_21_316
*1020 FILLER_21_324
*1021 FILLER_21_337
*1022 FILLER_21_36
*1023 FILLER_21_45
*1024 FILLER_21_53
*1025 FILLER_21_57
*1026 FILLER_21_69
*1027 FILLER_21_78
*1028 FILLER_21_89
*1029 FILLER_21_98
*1030 FILLER_22_103
*1031 FILLER_22_109
*1032 FILLER_22_11
*1033 FILLER_22_121
*1034 FILLER_22_133
*1035 FILLER_22_139
*1036 FILLER_22_141
*1037 FILLER_22_147
*1038 FILLER_22_171
*1039 FILLER_22_175
*1040 FILLER_22_18
*1041 FILLER_22_180
*1042 FILLER_22_186
*1043 FILLER_22_191
*1044 FILLER_22_195
*1045 FILLER_22_197
*1046 FILLER_22_221
*1047 FILLER_22_248
*1048 FILLER_22_25
*1049 FILLER_22_253
*1050 FILLER_22_259
*1051 FILLER_22_266
*1052 FILLER_22_274
*1053 FILLER_22_278
*1054 FILLER_22_285
*1055 FILLER_22_29
*1056 FILLER_22_293
*1057 FILLER_22_3
*1058 FILLER_22_300
*1059 FILLER_22_309
*1060 FILLER_22_317
*1061 FILLER_22_322
*1062 FILLER_22_330
*1063 FILLER_22_39
*1064 FILLER_22_47
*1065 FILLER_22_55
*1066 FILLER_22_64
*1067 FILLER_22_72
*1068 FILLER_22_82
*1069 FILLER_22_85
*1070 FILLER_22_95
*1071 FILLER_23_10
*1072 FILLER_23_100
*1073 FILLER_23_104
*1074 FILLER_23_110
*1075 FILLER_23_113
*1076 FILLER_23_132
*1077 FILLER_23_164
*1078 FILLER_23_169
*1079 FILLER_23_178
*1080 FILLER_23_19
*1081 FILLER_23_206
*1082 FILLER_23_213
*1083 FILLER_23_222
*1084 FILLER_23_225
*1085 FILLER_23_237
*1086 FILLER_23_26
*1087 FILLER_23_264
*1088 FILLER_23_271
*1089 FILLER_23_278
*1090 FILLER_23_281
*1091 FILLER_23_286
*1092 FILLER_23_298
*1093 FILLER_23_3
*1094 FILLER_23_306
*1095 FILLER_23_334
*1096 FILLER_23_337
*1097 FILLER_23_34
*1098 FILLER_23_43
*1099 FILLER_23_55
*1100 FILLER_23_57
*1101 FILLER_23_67
*1102 FILLER_23_76
*1103 FILLER_23_85
*1104 FILLER_23_91
*1105 FILLER_24_101
*1106 FILLER_24_107
*1107 FILLER_24_111
*1108 FILLER_24_120
*1109 FILLER_24_132
*1110 FILLER_24_141
*1111 FILLER_24_16
*1112 FILLER_24_166
*1113 FILLER_24_182
*1114 FILLER_24_191
*1115 FILLER_24_195
*1116 FILLER_24_197
*1117 FILLER_24_212
*1118 FILLER_24_222
*1119 FILLER_24_24
*1120 FILLER_24_246
*1121 FILLER_24_253
*1122 FILLER_24_259
*1123 FILLER_24_281
*1124 FILLER_24_289
*1125 FILLER_24_29
*1126 FILLER_24_297
*1127 FILLER_24_3
*1128 FILLER_24_305
*1129 FILLER_24_309
*1130 FILLER_24_315
*1131 FILLER_24_326
*1132 FILLER_24_336
*1133 FILLER_24_39
*1134 FILLER_24_51
*1135 FILLER_24_63
*1136 FILLER_24_74
*1137 FILLER_24_81
*1138 FILLER_24_85
*1139 FILLER_24_92
*1140 FILLER_25_10
*1141 FILLER_25_100
*1142 FILLER_25_106
*1143 FILLER_25_113
*1144 FILLER_25_122
*1145 FILLER_25_129
*1146 FILLER_25_142
*1147 FILLER_25_154
*1148 FILLER_25_166
*1149 FILLER_25_169
*1150 FILLER_25_174
*1151 FILLER_25_18
*1152 FILLER_25_182
*1153 FILLER_25_192
*1154 FILLER_25_207
*1155 FILLER_25_215
*1156 FILLER_25_221
*1157 FILLER_25_225
*1158 FILLER_25_238
*1159 FILLER_25_26
*1160 FILLER_25_262
*1161 FILLER_25_270
*1162 FILLER_25_277
*1163 FILLER_25_281
*1164 FILLER_25_290
*1165 FILLER_25_298
*1166 FILLER_25_3
*1167 FILLER_25_314
*1168 FILLER_25_323
*1169 FILLER_25_327
*1170 FILLER_25_334
*1171 FILLER_25_337
*1172 FILLER_25_34
*1173 FILLER_25_43
*1174 FILLER_25_54
*1175 FILLER_25_57
*1176 FILLER_25_67
*1177 FILLER_25_75
*1178 FILLER_25_81
*1179 FILLER_25_94
*1180 FILLER_26_10
*1181 FILLER_26_112
*1182 FILLER_26_121
*1183 FILLER_26_129
*1184 FILLER_26_138
*1185 FILLER_26_141
*1186 FILLER_26_155
*1187 FILLER_26_166
*1188 FILLER_26_174
*1189 FILLER_26_181
*1190 FILLER_26_190
*1191 FILLER_26_197
*1192 FILLER_26_20
*1193 FILLER_26_202
*1194 FILLER_26_214
*1195 FILLER_26_218
*1196 FILLER_26_229
*1197 FILLER_26_239
*1198 FILLER_26_248
*1199 FILLER_26_253
*1200 FILLER_26_263
*1201 FILLER_26_29
*1202 FILLER_26_291
*1203 FILLER_26_3
*1204 FILLER_26_306
*1205 FILLER_26_309
*1206 FILLER_26_314
*1207 FILLER_26_318
*1208 FILLER_26_326
*1209 FILLER_26_40
*1210 FILLER_26_51
*1211 FILLER_26_55
*1212 FILLER_26_63
*1213 FILLER_26_69
*1214 FILLER_26_73
*1215 FILLER_26_82
*1216 FILLER_26_85
*1217 FILLER_26_94
*1218 FILLER_26_98
*1219 FILLER_27_101
*1220 FILLER_27_11
*1221 FILLER_27_110
*1222 FILLER_27_113
*1223 FILLER_27_119
*1224 FILLER_27_125
*1225 FILLER_27_136
*1226 FILLER_27_148
*1227 FILLER_27_159
*1228 FILLER_27_167
*1229 FILLER_27_169
*1230 FILLER_27_176
*1231 FILLER_27_182
*1232 FILLER_27_191
*1233 FILLER_27_203
*1234 FILLER_27_214
*1235 FILLER_27_218
*1236 FILLER_27_22
*1237 FILLER_27_222
*1238 FILLER_27_225
*1239 FILLER_27_251
*1240 FILLER_27_276
*1241 FILLER_27_281
*1242 FILLER_27_291
*1243 FILLER_27_3
*1244 FILLER_27_303
*1245 FILLER_27_33
*1246 FILLER_27_334
*1247 FILLER_27_337
*1248 FILLER_27_45
*1249 FILLER_27_54
*1250 FILLER_27_57
*1251 FILLER_27_66
*1252 FILLER_27_74
*1253 FILLER_27_82
*1254 FILLER_27_90
*1255 FILLER_28_101
*1256 FILLER_28_11
*1257 FILLER_28_110
*1258 FILLER_28_120
*1259 FILLER_28_132
*1260 FILLER_28_141
*1261 FILLER_28_151
*1262 FILLER_28_158
*1263 FILLER_28_170
*1264 FILLER_28_174
*1265 FILLER_28_186
*1266 FILLER_28_194
*1267 FILLER_28_197
*1268 FILLER_28_205
*1269 FILLER_28_21
*1270 FILLER_28_214
*1271 FILLER_28_221
*1272 FILLER_28_233
*1273 FILLER_28_245
*1274 FILLER_28_251
*1275 FILLER_28_253
*1276 FILLER_28_260
*1277 FILLER_28_266
*1278 FILLER_28_27
*1279 FILLER_28_270
*1280 FILLER_28_278
*1281 FILLER_28_29
*1282 FILLER_28_290
*1283 FILLER_28_299
*1284 FILLER_28_3
*1285 FILLER_28_307
*1286 FILLER_28_309
*1287 FILLER_28_317
*1288 FILLER_28_321
*1289 FILLER_28_333
*1290 FILLER_28_337
*1291 FILLER_28_39
*1292 FILLER_28_51
*1293 FILLER_28_59
*1294 FILLER_28_68
*1295 FILLER_28_82
*1296 FILLER_28_85
*1297 FILLER_29_102
*1298 FILLER_29_11
*1299 FILLER_29_110
*1300 FILLER_29_113
*1301 FILLER_29_121
*1302 FILLER_29_126
*1303 FILLER_29_138
*1304 FILLER_29_142
*1305 FILLER_29_150
*1306 FILLER_29_162
*1307 FILLER_29_169
*1308 FILLER_29_178
*1309 FILLER_29_188
*1310 FILLER_29_192
*1311 FILLER_29_200
*1312 FILLER_29_211
*1313 FILLER_29_218
*1314 FILLER_29_225
*1315 FILLER_29_23
*1316 FILLER_29_234
*1317 FILLER_29_244
*1318 FILLER_29_254
*1319 FILLER_29_258
*1320 FILLER_29_262
*1321 FILLER_29_270
*1322 FILLER_29_277
*1323 FILLER_29_281
*1324 FILLER_29_289
*1325 FILLER_29_3
*1326 FILLER_29_301
*1327 FILLER_29_312
*1328 FILLER_29_321
*1329 FILLER_29_33
*1330 FILLER_29_333
*1331 FILLER_29_337
*1332 FILLER_29_37
*1333 FILLER_29_46
*1334 FILLER_29_54
*1335 FILLER_29_57
*1336 FILLER_29_66
*1337 FILLER_29_73
*1338 FILLER_29_85
*1339 FILLER_29_90
*1340 FILLER_2_109
*1341 FILLER_2_121
*1342 FILLER_2_133
*1343 FILLER_2_139
*1344 FILLER_2_141
*1345 FILLER_2_15
*1346 FILLER_2_153
*1347 FILLER_2_165
*1348 FILLER_2_177
*1349 FILLER_2_189
*1350 FILLER_2_195
*1351 FILLER_2_197
*1352 FILLER_2_209
*1353 FILLER_2_221
*1354 FILLER_2_233
*1355 FILLER_2_245
*1356 FILLER_2_251
*1357 FILLER_2_253
*1358 FILLER_2_265
*1359 FILLER_2_27
*1360 FILLER_2_277
*1361 FILLER_2_289
*1362 FILLER_2_29
*1363 FILLER_2_3
*1364 FILLER_2_301
*1365 FILLER_2_307
*1366 FILLER_2_309
*1367 FILLER_2_321
*1368 FILLER_2_333
*1369 FILLER_2_337
*1370 FILLER_2_41
*1371 FILLER_2_53
*1372 FILLER_2_65
*1373 FILLER_2_77
*1374 FILLER_2_83
*1375 FILLER_2_85
*1376 FILLER_2_97
*1377 FILLER_30_107
*1378 FILLER_30_115
*1379 FILLER_30_123
*1380 FILLER_30_127
*1381 FILLER_30_135
*1382 FILLER_30_139
*1383 FILLER_30_141
*1384 FILLER_30_15
*1385 FILLER_30_151
*1386 FILLER_30_163
*1387 FILLER_30_169
*1388 FILLER_30_179
*1389 FILLER_30_185
*1390 FILLER_30_194
*1391 FILLER_30_197
*1392 FILLER_30_205
*1393 FILLER_30_21
*1394 FILLER_30_214
*1395 FILLER_30_226
*1396 FILLER_30_233
*1397 FILLER_30_240
*1398 FILLER_30_249
*1399 FILLER_30_253
*1400 FILLER_30_269
*1401 FILLER_30_27
*1402 FILLER_30_278
*1403 FILLER_30_29
*1404 FILLER_30_291
*1405 FILLER_30_3
*1406 FILLER_30_303
*1407 FILLER_30_307
*1408 FILLER_30_309
*1409 FILLER_30_33
*1410 FILLER_30_336
*1411 FILLER_30_42
*1412 FILLER_30_50
*1413 FILLER_30_57
*1414 FILLER_30_61
*1415 FILLER_30_70
*1416 FILLER_30_74
*1417 FILLER_30_82
*1418 FILLER_30_85
*1419 FILLER_30_95
*1420 FILLER_31_110
*1421 FILLER_31_113
*1422 FILLER_31_121
*1423 FILLER_31_132
*1424 FILLER_31_144
*1425 FILLER_31_15
*1426 FILLER_31_154
*1427 FILLER_31_166
*1428 FILLER_31_169
*1429 FILLER_31_180
*1430 FILLER_31_188
*1431 FILLER_31_197
*1432 FILLER_31_207
*1433 FILLER_31_21
*1434 FILLER_31_215
*1435 FILLER_31_222
*1436 FILLER_31_225
*1437 FILLER_31_229
*1438 FILLER_31_234
*1439 FILLER_31_242
*1440 FILLER_31_25
*1441 FILLER_31_250
*1442 FILLER_31_260
*1443 FILLER_31_274
*1444 FILLER_31_281
*1445 FILLER_31_290
*1446 FILLER_31_3
*1447 FILLER_31_302
*1448 FILLER_31_317
*1449 FILLER_31_325
*1450 FILLER_31_333
*1451 FILLER_31_337
*1452 FILLER_31_37
*1453 FILLER_31_48
*1454 FILLER_31_57
*1455 FILLER_31_67
*1456 FILLER_31_75
*1457 FILLER_31_86
*1458 FILLER_31_94
*1459 FILLER_32_107
*1460 FILLER_32_119
*1461 FILLER_32_127
*1462 FILLER_32_133
*1463 FILLER_32_139
*1464 FILLER_32_141
*1465 FILLER_32_147
*1466 FILLER_32_15
*1467 FILLER_32_155
*1468 FILLER_32_160
*1469 FILLER_32_167
*1470 FILLER_32_179
*1471 FILLER_32_192
*1472 FILLER_32_197
*1473 FILLER_32_207
*1474 FILLER_32_216
*1475 FILLER_32_220
*1476 FILLER_32_224
*1477 FILLER_32_228
*1478 FILLER_32_234
*1479 FILLER_32_242
*1480 FILLER_32_250
*1481 FILLER_32_253
*1482 FILLER_32_268
*1483 FILLER_32_27
*1484 FILLER_32_279
*1485 FILLER_32_283
*1486 FILLER_32_29
*1487 FILLER_32_290
*1488 FILLER_32_297
*1489 FILLER_32_3
*1490 FILLER_32_305
*1491 FILLER_32_309
*1492 FILLER_32_324
*1493 FILLER_32_336
*1494 FILLER_32_41
*1495 FILLER_32_53
*1496 FILLER_32_65
*1497 FILLER_32_69
*1498 FILLER_32_76
*1499 FILLER_32_85
*1500 FILLER_32_90
*1501 FILLER_32_98
*1502 FILLER_33_108
*1503 FILLER_33_113
*1504 FILLER_33_119
*1505 FILLER_33_127
*1506 FILLER_33_15
*1507 FILLER_33_151
*1508 FILLER_33_158
*1509 FILLER_33_166
*1510 FILLER_33_169
*1511 FILLER_33_177
*1512 FILLER_33_186
*1513 FILLER_33_198
*1514 FILLER_33_209
*1515 FILLER_33_213
*1516 FILLER_33_217
*1517 FILLER_33_223
*1518 FILLER_33_225